data/inputs/nesta_case1354_pegase.m
%%%%%%%%%%%%%%%%%%%%%%%%%%%%%%%%%%%%%%%%%%%%%%%%%%%%%%%%%%%%%%%%%%%%%%%%%%%
%%%%                                                                  %%%%%
%%%%      NICTA Energy System Test Case Archive (NESTA) - v0.7.0      %%%%%
%%%%              Optimal Power Flow - Typical Operation              %%%%%
%%%%                         05 - June - 2017                         %%%%%
%%%%                                                                  %%%%%
%%%%%%%%%%%%%%%%%%%%%%%%%%%%%%%%%%%%%%%%%%%%%%%%%%%%%%%%%%%%%%%%%%%%%%%%%%%
%
%CASE1354PEGASE  Power flow data for medium part of European system.
%   Please see CASEFORMAT for details on the case file format.
%
%   This case accurately represents the size and complexity of part of the
%   European high voltage transmission network. The network contains 1,354
%   buses, 260 generators, and 1,991 branches and it operates at 380 and
%   220 kV. Please note that the data are fictitious and do not correspond
%   to real world data. They can thus be used to validate methods and tools
%   but should not be used for operation and planning of the European grid.
%
%   The data stems from the Pan European Grid Advanced Simulation and State
%   Estimation (PEGASE) project, part of the 7th Framework Program of the
%   European Union (http://www.fp7-pegase.com/). When publishing results
%   based on this data, please cite:
%
%     S. Fliscounakis, P. Panciatici, F. Capitanescu, and L. Wehenkel,
%     "Contingency ranking with respect to overloads in very large power
%     systems taking into account uncertainty, preventive and corrective
%     actions", Power Systems, IEEE Trans. on, (28)4:4909-4917, 2013.
%     http://dx.doi.org/10.1109/TPWRS.2013.2251015
%
%   Remarks:
%
%   1. Line flow limits are 100 MVA (at 1 p.u. voltage) lower than the
%   current flow limits found in PEGASE data.
%
%   2. PEGASE data contains asymmetric shunt conductance and susceptance in
%   the PI transmission line model of branches. Thus total line charging
%   susceptance of branches is set to 0 p.u. and the nodal representation
%   of shunt condutance and susceptance is used. As a result, power flow
%   equations are left unchanged compared with original PEGASE data.
%   However, line flow constraints in the optimal flow problem are
%   modified.
%
%   3. Identical linear costs are used for all generators to form a loss
%   minimizing OPF objective function.
%
%   4. Since some parts of the network are aggregated, some generators
%   (e.g. with negative PMIN) represent aggregations of multiple loads
%   and generators.
%
%   Cédric Josz, Stéphane Fliscounakis, Jean Maeght, Patrick Panciatici
%   firstname.lastname@rte-france.com
%   Réseau de Transport d'Electricité (French Transmission System Operator)
%   Département Expertise Système, Immeuble "Le Colbert"
%   9 rue de la Porte de Buc, 78000 Versailles Cedex, France
%   March 18th, 2015
%
%   MATPOWER
%   Copyright (c) 2015 by Cédric Josz, Stéphane Fliscounakis, Jean Maeght,
%   and Patrick Panciatici
%   Licensed under the Creative Commons Attribution 4.0 International license,
%   http://creativecommons.org/licenses/by/4.0/
%
function mpc = nesta_case1354_pegase
mpc.version = '2';
mpc.baseMVA = 100.0;

%% bus data
%	bus_i	type	Pd	Qd	Gs	Bs	area	Vm	Va	baseKV	zone	Vmax	Vmin
mpc.bus = [
	3	 1	 151.0	 48.8	 0.0	 4.69	 0	    1.07519	   -8.39138	 220.0	 5	    1.10000	    0.90000;
	4	 1	 171.41	 23.4	 0.0	 2.1	 0	    1.06218	   -5.59589	 220.0	 5	    1.10000	    0.90000;
	10	 1	 134.0	 24.7	 0.0	 12.44	 0	    1.06448	  -17.45530	 220.0	 5	    1.10000	    0.90000;
	21	 1	 161.2	 39.3	 0.0	 30.71	 0	    1.05996	  -16.07568	 220.0	 5	    1.10000	    0.90000;
	22	 1	 0.0	 -0.0	 0.0	 0.85	 0	    1.07821	  -11.10119	 220.0	 5	    1.10000	    0.90000;
	26	 1	 167.3	 54.8	 0.0	 110.54	 0	    1.07077	   -1.22391	 380.0	 5	    1.10000	    0.90000;
	29	 1	 152.9	 49.4	 0.0	 27.65	 0	    1.04996	   -3.00640	 380.0	 5	    1.10000	    0.90000;
	44	 1	 -0.0	 0.0	 0.0	 7.27	 0	    1.07135	  -15.47942	 220.0	 5	    1.10000	    0.90000;
	53	 1	 48.65	 16.1	 0.0	 7.14	 0	    1.09043	   -2.01096	 220.0	 5	    1.10000	    0.90000;
	58	 1	 0.0	 0.0	 0.0	 2.31	 0	    1.04516	   -1.17542	 380.0	 5	    1.10000	    0.90000;
	59	 1	 119.2	 20.7	 0.0	 3.31	 0	    1.08401	  -14.64076	 220.0	 5	    1.10000	    0.90000;
	90	 1	 363.25	 115.39	 0.0	 3.95	 0	    1.08210	  -11.02717	 220.0	 5	    1.10000	    0.90000;
	96	 1	 -8.4	 28.66	 0.0	 3.49	 0	    1.09579	   -1.98770	 220.0	 5	    1.10000	    0.90000;
	113	 1	 -0.0	 -0.0	 0.0	 6.532711	 0	    1.06619	   -4.08534	 380.0	 5	    1.10000	    0.90000;
	115	 1	 0.0	 -0.0	 0.0	 4.21	 0	    1.07004	  -12.60574	 220.0	 5	    1.10000	    0.90000;
	118	 1	 704.53	 -35.33	 0.0	 13.102834	 0	    1.07422	   -4.12220	 380.0	 5	    1.10000	    0.90000;
	124	 2	 0.0	 0.0	 0.0	 0.0	 0	    1.07561	    2.13988	 220.0	 5	    1.10000	    0.90000;
	128	 1	 23.73	 12.7	 0.0	 0.52	 0	    1.05041	  -12.68947	 220.0	 5	    1.10000	    0.90000;
	145	 1	 38.34	 5.6	 0.0	 7.64	 0	    1.09099	   -4.22165	 220.0	 5	    1.10000	    0.90000;
	148	 1	 32.34	 12.0	 0.0	 6.1	 0	    1.07305	   -4.39485	 220.0	 5	    1.10000	    0.90000;
	150	 2	 0.0	 0.0	 0.0	 0.0	 0	    1.08401	   -3.14807	 220.0	 5	    1.10000	    0.90000;
	163	 1	 147.76	 32.73	 0.0	 8.34	 0	    1.07922	   -8.55732	 220.0	 5	    1.10000	    0.90000;
	171	 1	 100.8	 13.2	 0.0	 5.24	 0	    1.08936	   -9.62357	 220.0	 5	    1.10000	    0.90000;
	174	 1	 370.5	 -17.0	 0.0	 9.91	 0	    1.09116	  -16.35839	 220.0	 5	    1.10000	    0.90000;
	184	 1	 -0.0	 -0.0	 0.0	 2.42	 0	    1.06428	  -10.15312	 220.0	 5	    1.10000	    0.90000;
	188	 1	 36.84	 13.9	 0.0	 3.3	 0	    1.05730	   -9.72304	 220.0	 5	    1.10000	    0.90000;
	195	 1	 73.14	 21.55	 0.0	 8.52	 0	    1.08525	   -3.29258	 220.0	 5	    1.10000	    0.90000;
	196	 1	 0.0	 -0.0	 0.0	 12.48	 0	    1.09932	  -20.45543	 220.0	 5	    1.10000	    0.90000;
	198	 1	 39.74	 11.8	 0.0	 1.44	 0	    1.04629	  -13.10310	 220.0	 5	    1.10000	    0.90000;
	207	 1	 321.98	 84.4	 0.0	 1.34	 0	    1.04887	  -11.82621	 220.0	 5	    1.10000	    0.90000;
	216	 1	 155.6	 54.7	 0.0	 2.21	 0	    1.08763	  -15.66663	 220.0	 5	    1.10000	    0.90000;
	217	 1	 105.2	 0.1	 0.0	 7.36	 0	    1.04421	   -6.21495	 220.0	 5	    1.10000	    0.90000;
	218	 1	 69.83	 15.12	 0.0	 2.23	 0	    1.08943	   -7.92290	 220.0	 5	    1.10000	    0.90000;
	221	 2	 0.0	 0.0	 0.0	 0.0	 0	    1.04083	   -1.20886	 380.0	 5	    1.10000	    0.90000;
	225	 1	 0.0	 0.0	 0.0	 1.15	 0	    1.06717	  -12.98340	 220.0	 5	    1.10000	    0.90000;
	280	 1	 119.6	 29.6	 0.0	 5.34	 0	    1.08079	   -5.52537	 220.0	 5	    1.10000	    0.90000;
	283	 1	 27.33	 11.9	 0.0	 1.17	 0	    1.05824	  -10.61948	 220.0	 5	    1.10000	    0.90000;
	292	 1	 13.82	 1.4	 0.0	 0.7	 0	    1.09663	   -7.73966	 220.0	 5	    1.10000	    0.90000;
	305	 1	 103.0	 12.0	 0.0	 0.63	 0	    1.08329	  -19.05793	 220.0	 5	    1.10000	    0.90000;
	306	 1	 -0.0	 0.0	 0.0	 4.76	 0	    1.04674	  -14.15003	 220.0	 5	    1.10000	    0.90000;
	314	 1	 163.1	 46.3	 0.0	 10.6	 0	    1.03305	  -14.22710	 220.0	 5	    1.10000	    0.90000;
	333	 1	 524.5	 43.0	 0.0	 6.85	 0	    1.03465	  -26.94418	 220.0	 5	    1.10000	    0.90000;
	338	 2	 0.0	 0.0	 0.0	 0.0	 0	    1.09918	   -3.06168	 220.0	 5	    1.10000	    0.90000;
	346	 1	 197.5	 48.3	 0.0	 0.71	 0	    1.08473	  -13.45907	 220.0	 5	    1.10000	    0.90000;
	350	 1	 110.4	 26.2	 0.0	 5.62	 0	    1.06871	  -16.54325	 220.0	 5	    1.10000	    0.90000;
	352	 2	 0.0	 0.0	 0.0	 0.0	 0	    1.02171	    1.79363	 380.0	 5	    1.10000	    0.90000;
	367	 1	 65.17	 -51.5	 0.0	 4.85	 0	    1.09518	  -17.84701	 220.0	 5	    1.10000	    0.90000;
	401	 1	 56.5	 36.29	 0.0	 3.08	 0	    1.09462	   -5.27488	 220.0	 5	    1.10000	    0.90000;
	408	 1	 129.1	 7.4	 0.0	 0.04	 0	    1.06730	  -10.09588	 220.0	 5	    1.10000	    0.90000;
	410	 1	 170.89	 50.38	 0.0	 6.44	 0	    1.08437	  -14.44373	 220.0	 5	    1.10000	    0.90000;
	413	 2	 0.0	 0.0	 0.0	 0.0	 0	    1.07868	    1.36999	 220.0	 5	    1.10000	    0.90000;
	416	 1	 70.68	 13.5	 0.0	 6.96	 0	    1.09096	   -5.62794	 220.0	 5	    1.10000	    0.90000;
	426	 1	 123.1	 6.5	 0.0	 3.25	 0	    1.08070	   -9.54727	 220.0	 5	    1.10000	    0.90000;
	432	 1	 -0.0	 -0.0	 0.0	 68.517663	 0	    1.06358	   -0.05615	 380.0	 5	    1.10000	    0.90000;
	444	 1	 0.0	 -0.0	 0.0	 2.45	 0	    1.05831	  -10.65503	 220.0	 5	    1.10000	    0.90000;
	449	 1	 0.0	 0.0	 0.0	 29.42	 0	    1.02444	   -2.58882	 380.0	 5	    1.10000	    0.90000;
	453	 2	 0.0	 0.0	 0.0	 0.0	 0	    1.06627	   -1.09015	 380.0	 5	    1.10000	    0.90000;
	455	 1	 274.32	 5.66	 0.0	 13.24	 0	    1.06809	  -17.05150	 220.0	 5	    1.10000	    0.90000;
	490	 1	 20.52	 4.0	 0.0	 2.77	 0	    1.05707	  -16.90315	 220.0	 5	    1.10000	    0.90000;
	500	 1	 144.4	 35.5	 0.0	 7.66	 0	    1.08105	   -6.46319	 220.0	 5	    1.10000	    0.90000;
	502	 1	 -0.0	 0.0	 0.0	 1.96	 0	    1.08194	   -2.29075	 220.0	 5	    1.10000	    0.90000;
	506	 1	 -0.0	 0.0	 0.0	 0.4	 0	    1.07706	   -0.77450	 380.0	 5	    1.10000	    0.90000;
	513	 1	 57.46	 17.1	 0.0	 1.61	 0	    1.07702	   -3.13973	 220.0	 5	    1.10000	    0.90000;
	516	 2	 0.0	 0.0	 0.0	 0.0	 0	    1.08446	  -17.11684	 220.0	 5	    1.10000	    0.90000;
	520	 1	 118.5	 20.4	 0.0	 2.57	 0	    1.09558	   -8.79611	 220.0	 5	    1.10000	    0.90000;
	549	 1	 0.0	 -0.0	 0.0	 5.15	 0	    1.09996	   -3.88859	 220.0	 5	    1.10000	    0.90000;
	554	 1	 0.0	 -0.0	 0.0	 1.97	 0	    1.06794	  -13.22873	 220.0	 5	    1.10000	    0.90000;
	556	 1	 16.52	 9.0	 0.0	 1.17	 0	    1.05777	  -16.70080	 220.0	 5	    1.10000	    0.90000;
	561	 1	 0.0	 -0.0	 0.0	 0.32	 0	    1.09019	   -2.75570	 220.0	 5	    1.10000	    0.90000;
	564	 2	 0.0	 0.0	 0.0	 0.0	 0	    1.09409	  -28.87489	 220.0	 5	    1.10000	    0.90000;
	575	 1	 0.0	 -0.0	 0.0	 0.67	 0	    1.06703	  -10.16505	 220.0	 5	    1.10000	    0.90000;
	583	 2	 0.0	 0.0	 0.0	 0.0	 0	    1.09129	   -4.51541	 220.0	 5	    1.10000	    0.90000;
	594	 1	 67.57	 17.0	 0.0	 5.75	 0	    1.06043	   -0.94701	 220.0	 5	    1.10000	    0.90000;
	601	 1	 140.6	 42.6	 0.0	 5.71	 0	    1.09158	   -6.69498	 220.0	 5	    1.10000	    0.90000;
	604	 1	 33.24	 4.4	 0.0	 24.54	 0	    1.02467	   -8.07413	 380.0	 5	    1.10000	    0.90000;
	608	 1	 150.9	 10.4	 0.0	 4.77	 0	    1.09616	  -15.41038	 220.0	 5	    1.10000	    0.90000;
	609	 1	 -0.0	 -0.0	 0.0	 5.67	 0	    1.06924	   -8.18068	 220.0	 5	    1.10000	    0.90000;
	615	 2	 0.0	 0.0	 0.0	 0.0	 0	    1.09555	   -4.08456	 220.0	 5	    1.10000	    0.90000;
	616	 2	 0.0	 0.0	 0.0	 0.0	 0	    1.10000	   -5.09881	 220.0	 5	    1.10000	    0.90000;
	619	 1	 72.88	 14.4	 0.0	 2.96	 0	    1.09472	  -16.71683	 220.0	 5	    1.10000	    0.90000;
	639	 2	 0.0	 0.0	 0.0	 0.0	 0	    1.09623	  -19.61311	 220.0	 5	    1.10000	    0.90000;
	641	 1	 45.32	 18.5	 0.0	 0.74	 0	    1.09628	   -1.33247	 220.0	 5	    1.10000	    0.90000;
	658	 1	 258.4	 66.7	 0.0	 5.87	 0	    1.05676	   -7.65913	 220.0	 5	    1.10000	    0.90000;
	661	 1	 -0.0	 -0.0	 0.0	 0.6	 0	    1.03506	   -1.61880	 380.0	 5	    1.10000	    0.90000;
	666	 1	 -5.61	 -2.79	 0.0	 150.93	 0	    1.06024	   -3.20911	 380.0	 5	    1.10000	    0.90000;
	678	 1	 232.1	 89.8	 0.0	 0.09	 0	    1.08731	   -2.49514	 220.0	 5	    1.10000	    0.90000;
	682	 2	 0.0	 0.0	 0.0	 0.0	 0	    1.08650	   -3.11647	 220.0	 5	    1.10000	    0.90000;
	687	 1	 -0.0	 0.0	 0.0	 5.6	 0	    1.07195	   -4.89704	 220.0	 5	    1.10000	    0.90000;
	707	 1	 83.99	 21.2	 0.0	 5.36	 0	    1.08327	   -8.72407	 220.0	 5	    1.10000	    0.90000;
	718	 1	 135.11	 41.0	 0.0	 5.31	 0	    1.08560	   -8.83488	 220.0	 5	    1.10000	    0.90000;
	720	 1	 -0.0	 -0.0	 0.0	 23.554121	 0	    1.02680	  -17.55252	 380.0	 5	    1.10000	    0.90000;
	726	 1	 400.3	 189.9	 0.0	 0.53	 0	    1.06273	   -5.73838	 220.0	 5	    1.10000	    0.90000;
	742	 1	 0.0	 -0.0	 0.0	 2.83	 0	    1.07212	   -4.89854	 220.0	 5	    1.10000	    0.90000;
	747	 1	 69.58	 16.0	 0.0	 3.03	 0	    1.09843	  -20.51343	 220.0	 5	    1.10000	    0.90000;
	749	 2	 0.0	 0.0	 0.0	 0.0	 0	    1.09241	   -9.28856	 220.0	 5	    1.10000	    0.90000;
	750	 1	 -0.0	 -0.0	 0.0	 18.63	 0	    1.08934	  -15.53372	 220.0	 5	    1.10000	    0.90000;
	757	 2	 0.0	 0.0	 0.0	 0.0	 0	    1.05477	   -5.35232	 380.0	 5	    1.10000	    0.90000;
	766	 1	 -0.0	 0.0	 0.0	 7.85	 0	    1.08971	  -12.81405	 220.0	 5	    1.10000	    0.90000;
	769	 1	 152.57	 40.0	 0.0	 6.12	 0	    1.04008	   -9.08631	 220.0	 5	    1.10000	    0.90000;
	772	 1	 343.9	 141.9	 0.0	 5.55	 0	    1.07511	   -7.51201	 220.0	 5	    1.10000	    0.90000;
	776	 2	 0.0	 0.0	 0.0	 0.0	 0	    1.09014	   -5.37449	 220.0	 5	    1.10000	    0.90000;
	778	 2	 0.0	 0.0	 0.0	 0.0	 0	    1.09950	   -3.05647	 220.0	 5	    1.10000	    0.90000;
	789	 1	 -0.0	 -0.0	 0.0	 6.63	 0	    1.09188	   -5.80023	 220.0	 5	    1.10000	    0.90000;
	795	 2	 0.0	 0.0	 0.0	 0.0	 0	    1.10000	   -0.85024	 220.0	 5	    1.10000	    0.90000;
	800	 1	 50.56	 18.0	 0.0	 0.11	 0	    1.05782	  -10.65197	 220.0	 5	    1.10000	    0.90000;
	803	 2	 0.0	 0.0	 0.0	 0.0	 0	    1.10000	   -6.38251	 220.0	 5	    1.10000	    0.90000;
	804	 1	 -0.0	 -0.0	 0.0	 7.26	 0	    1.10000	   -4.16447	 220.0	 5	    1.10000	    0.90000;
	805	 1	 124.5	 29.6	 0.0	 15.4	 0	    1.09881	   -6.53763	 220.0	 5	    1.10000	    0.90000;
	809	 1	 0.0	 -0.0	 0.0	 58.088687	 0	    1.03617	   -1.50902	 380.0	 5	    1.10000	    0.90000;
	819	 1	 0.0	 -0.0	 0.0	 0.22	 0	    1.08797	   -2.80798	 220.0	 5	    1.10000	    0.90000;
	823	 2	 0.0	 0.0	 0.0	 0.0	 0	    1.02182	    0.59528	 380.0	 5	    1.10000	    0.90000;
	839	 1	 -0.0	 -0.0	 0.0	 8.17514	 0	    1.03435	   -2.21484	 380.0	 5	    1.10000	    0.90000;
	851	 2	 0.0	 0.0	 0.0	 0.0	 0	    1.09984	   -1.48589	 220.0	 5	    1.10000	    0.90000;
	858	 2	 0.0	 0.0	 0.0	 0.0	 0	    1.03683	   -0.95616	 380.0	 5	    1.10000	    0.90000;
	870	 1	 110.0	 3.4	 0.0	 11.95	 0	    1.08902	  -15.67766	 220.0	 5	    1.10000	    0.90000;
	871	 1	 108.89	 -21.76	 0.0	 3.72	 0	    1.08807	   -3.43424	 220.0	 5	    1.10000	    0.90000;
	883	 1	 192.5	 78.3	 0.0	 6.65	 0	    1.06508	   -6.59307	 220.0	 5	    1.10000	    0.90000;
	891	 2	 0.0	 0.0	 0.0	 0.0	 0	    1.08559	   -4.09193	 380.0	 5	    1.10000	    0.90000;
	892	 1	 -0.0	 -0.0	 0.0	 9.1	 0	    1.07968	  -18.61487	 220.0	 5	    1.10000	    0.90000;
	900	 1	 0.0	 0.0	 0.0	 0.15	 0	    1.07941	   -6.29798	 220.0	 5	    1.10000	    0.90000;
	903	 1	 82.69	 20.1	 0.0	 1.36	 0	    1.09840	  -20.53738	 220.0	 5	    1.10000	    0.90000;
	905	 1	 631.71	 -54.16	 0.0	 7.534129	 0	    1.07011	   -5.18462	 380.0	 5	    1.10000	    0.90000;
	907	 1	 -0.0	 -0.0	 0.0	 0.05	 0	    1.09234	   -3.68795	 220.0	 5	    1.10000	    0.90000;
	908	 1	 125.9	 -0.5	 0.0	 0.21	 0	    1.09256	   -1.50922	 220.0	 5	    1.10000	    0.90000;
	920	 1	 34.44	 8.5	 0.0	 1.11	 0	    1.08935	  -12.97224	 220.0	 5	    1.10000	    0.90000;
	923	 1	 62.07	 14.7	 0.0	 4.84	 0	    1.05633	  -16.98789	 220.0	 5	    1.10000	    0.90000;
	933	 1	 -0.0	 0.0	 0.0	 22.75	 0	    1.07663	   -8.91438	 220.0	 5	    1.10000	    0.90000;
	935	 1	 -0.0	 0.0	 0.0	 9.46	 0	    1.09673	  -15.99916	 220.0	 5	    1.10000	    0.90000;
	953	 1	 108.7	 -12.15	 0.0	 37.11	 0	    1.05714	   -4.70263	 380.0	 5	    1.10000	    0.90000;
	954	 1	 66.27	 13.6	 0.0	 0.67	 0	    1.09422	  -11.91319	 220.0	 5	    1.10000	    0.90000;
	960	 1	 -0.0	 -0.0	 0.0	 108.728602	 0	    1.07706	   -0.77449	 380.0	 5	    1.10000	    0.90000;
	964	 1	 88.5	 16.5	 0.0	 146.44	 0	    1.05845	   -4.30323	 380.0	 5	    1.10000	    0.90000;
	972	 2	 0.0	 0.0	 0.0	 0.0	 0	    1.06550	    0.99158	 380.0	 5	    1.30000	    0.70000;
	980	 1	 14.71	 4.6	 0.0	 7.88	 0	    1.09509	  -16.61223	 220.0	 5	    1.10000	    0.90000;
	1001	 2	 0.0	 0.0	 0.0	 0.0	 0	    1.08369	  -17.28047	 220.0	 5	    1.10000	    0.90000;
	1002	 2	 0.0	 0.0	 0.0	 0.0	 0	    1.08819	  -12.29727	 220.0	 5	    1.10000	    0.90000;
	1005	 1	 0.0	 0.0	 0.0	 0.81	 0	    1.09560	   -5.03662	 220.0	 5	    1.10000	    0.90000;
	1015	 1	 44.55	 0.0	 0.0	 4.78	 0	    1.09852	   -5.08855	 220.0	 5	    1.10000	    0.90000;
	1026	 1	 201.4	 53.0	 0.0	 9.67	 0	    1.07132	  -11.89470	 220.0	 5	    1.10000	    0.90000;
	1027	 1	 -5.91	 -2.33	 0.0	 30.393595	 0	    1.01160	  -11.88180	 380.0	 5	    1.10000	    0.90000;
	1033	 1	 26.33	 5.3	 0.0	 4.31	 0	    1.08917	  -15.60463	 220.0	 5	    1.10000	    0.90000;
	1035	 1	 382.5	 57.9	 0.0	 8.16	 0	    1.08391	  -18.94908	 220.0	 5	    1.10000	    0.90000;
	1039	 1	 34.64	 -0.0	 0.0	 0.91	 0	    1.08562	   -6.43087	 220.0	 5	    1.10000	    0.90000;
	1040	 1	 31.94	 8.8	 0.0	 3.79	 0	    1.09107	   -4.16906	 220.0	 5	    1.10000	    0.90000;
	1043	 2	 0.0	 0.0	 0.0	 0.0	 0	    1.07052	   -1.00435	 380.0	 5	    1.10000	    0.90000;
	1051	 1	 -0.0	 0.0	 0.0	 3.79	 0	    1.09613	   -5.04154	 220.0	 5	    1.10000	    0.90000;
	1077	 1	 -0.0	 0.0	 0.0	 0.1	 0	    1.05824	  -10.61950	 220.0	 5	    1.10000	    0.90000;
	1078	 1	 -0.0	 -0.0	 0.0	 4.74	 0	    1.09870	   -4.78765	 220.0	 5	    1.10000	    0.90000;
	1081	 1	 277.86	 58.95	 0.0	 182.880644	 0	    1.08091	   -3.08930	 380.0	 5	    1.10000	    0.90000;
	1083	 2	 0.0	 0.0	 0.0	 0.0	 0	    1.10000	   -4.92018	 220.0	 5	    1.10000	    0.90000;
	1090	 1	 56.06	 18.7	 0.0	 4.24	 0	    1.02730	  -16.92666	 220.0	 5	    1.10000	    0.90000;
	1093	 2	 0.0	 0.0	 0.0	 0.0	 0	    1.07328	   -0.80901	 380.0	 5	    1.10000	    0.90000;
	1096	 1	 0.0	 -0.0	 0.0	 0.16	 0	    1.08781	   -2.81876	 220.0	 5	    1.10000	    0.90000;
	1100	 2	 0.0	 0.0	 0.0	 0.0	 0	    1.08916	   -3.32267	 220.0	 5	    1.10000	    0.90000;
	1101	 1	 -0.0	 -0.0	 0.0	 2.05	 0	    1.08202	   -7.23955	 220.0	 5	    1.10000	    0.90000;
	1102	 2	 0.0	 0.0	 0.0	 0.0	 0	    1.07865	    1.36431	 220.0	 5	    1.10000	    0.90000;
	1105	 1	 29.83	 7.3	 0.0	 6.49	 0	    1.09926	  -20.46128	 220.0	 5	    1.10000	    0.90000;
	1111	 1	 0.0	 0.0	 0.0	 1.1	 0	    1.06058	   -0.94892	 220.0	 5	    1.10000	    0.90000;
	1129	 1	 190.47	 55.03	 0.0	 6.7	 0	    1.02065	  -17.73903	 220.0	 5	    1.10000	    0.90000;
	1136	 1	 16.22	 2.0	 0.0	 0.71	 0	    1.07795	  -11.15250	 220.0	 5	    1.10000	    0.90000;
	1137	 1	 -0.0	 -0.0	 0.0	 0.05	 0	    1.09627	  -15.96085	 220.0	 5	    1.10000	    0.90000;
	1146	 1	 32.84	 -0.0	 0.0	 1.41	 0	    1.06152	   -7.21383	 220.0	 5	    1.10000	    0.90000;
	1151	 1	 -0.0	 -0.0	 0.0	 18.82	 0	    1.08771	  -12.82567	 220.0	 5	    1.10000	    0.90000;
	1153	 1	 12.41	 3.9	 0.0	 2.23	 0	    1.05200	   -5.00620	 220.0	 5	    1.10000	    0.90000;
	1156	 1	 65.67	 24.0	 0.0	 9.95	 0	    1.05982	  -16.48481	 220.0	 5	    1.10000	    0.90000;
	1159	 1	 112.4	 13.0	 0.0	 3.99	 0	    1.06694	  -20.32194	 220.0	 5	    1.10000	    0.90000;
	1172	 1	 -0.0	 -0.0	 0.0	 2.3	 0	    1.09870	  -19.72448	 220.0	 5	    1.10000	    0.90000;
	1179	 1	 86.6	 23.4	 0.0	 0.39	 0	    1.04235	   -6.41334	 220.0	 5	    1.10000	    0.90000;
	1183	 1	 199.4	 -19.9	 0.0	 6.68	 0	    1.08639	  -17.81438	 220.0	 5	    1.10000	    0.90000;
	1187	 1	 67.57	 21.2	 0.0	 5.71	 0	    1.07053	   -6.43906	 220.0	 5	    1.10000	    0.90000;
	1188	 1	 30.93	 6.6	 0.0	 9.09	 0	    1.09582	   -5.84427	 220.0	 5	    1.10000	    0.90000;
	1194	 1	 129.6	 13.3	 0.0	 13.98	 0	    1.07258	   -4.15047	 380.0	 5	    1.10000	    0.90000;
	1198	 1	 0.0	 0.0	 0.0	 30.637696	 0	    1.04302	   -3.26243	 380.0	 5	    1.10000	    0.90000;
	1201	 1	 114.1	 23.5	 0.0	 1.08	 0	    1.09664	  -12.45164	 220.0	 5	    1.10000	    0.90000;
	1216	 1	 0.0	 0.0	 0.0	 4.93	 0	    1.05455	   -8.86405	 220.0	 5	    1.10000	    0.90000;
	1233	 1	 0.0	 -0.0	 0.0	 1.72	 0	    1.05973	  -16.50783	 220.0	 5	    1.10000	    0.90000;
	1234	 1	 71.78	 17.9	 0.0	 1.96	 0	    1.06410	   -9.60928	 220.0	 5	    1.10000	    0.90000;
	1237	 2	 0.0	 0.0	 0.0	 0.0	 0	    1.07668	    0.96970	 380.0	 5	    1.30000	    0.70000;
	1248	 1	 0.0	 0.0	 0.0	 1.17	 0	    1.07938	   -8.55886	 220.0	 5	    1.10000	    0.90000;
	1249	 1	 348.93	 26.47	 0.0	 9.36	 0	    1.06857	   -5.31844	 380.0	 5	    1.10000	    0.90000;
	1251	 2	 0.0	 0.0	 0.0	 0.0	 0	    1.07308	   -0.86800	 380.0	 5	    1.10000	    0.90000;
	1262	 1	 -0.0	 0.0	 0.0	 10.73	 0	    1.05984	  -16.08047	 220.0	 5	    1.10000	    0.90000;
	1265	 1	 173.0	 -21.3	 0.0	 5.93	 0	    1.08793	  -32.90307	 220.0	 5	    1.10000	    0.90000;
	1275	 1	 52.46	 2.9	 0.0	 0.35	 0	    1.07515	  -12.28154	 220.0	 5	    1.10000	    0.90000;
	1295	 2	 0.0	 0.0	 0.0	 0.0	 0	    1.09927	   -3.08697	 220.0	 5	    1.10000	    0.90000;
	1301	 1	 479.0	 99.2	 0.0	 10.68	 0	    1.07361	  -14.93044	 220.0	 5	    1.10000	    0.90000;
	1305	 1	 -0.0	 -0.0	 0.0	 4.34	 0	    1.09147	   -8.41933	 220.0	 5	    1.10000	    0.90000;
	1311	 1	 37.94	 15.2	 0.0	 35.31	 0	    1.05128	   -9.35461	 380.0	 5	    1.10000	    0.90000;
	1326	 1	 0.0	 0.0	 0.0	 0.98	 0	    1.07983	  -18.61587	 220.0	 5	    1.10000	    0.90000;
	1334	 1	 0.0	 0.0	 0.0	 0.59	 0	    1.06612	   -9.36488	 220.0	 5	    1.10000	    0.90000;
	1341	 2	 0.0	 0.0	 0.0	 0.0	 0	    1.08138	   -7.23540	 220.0	 5	    1.10000	    0.90000;
	1343	 1	 -0.0	 -0.0	 0.0	 58.3	 0	    1.04794	   -3.69643	 380.0	 5	    1.10000	    0.90000;
	1354	 2	 0.0	 0.0	 0.0	 0.0	 0	    1.08173	   -2.46776	 220.0	 5	    1.10000	    0.90000;
	1355	 1	 -3.29	 -1.32	 0.0	 190.704588	 0	    1.07901	   -2.91552	 380.0	 5	    1.10000	    0.90000;
	1364	 1	 40.85	 14.5	 0.0	 0.59	 0	    1.07511	   -8.96804	 220.0	 5	    1.10000	    0.90000;
	1380	 1	 145.2	 21.4	 0.0	 1.09	 0	    1.08131	  -14.83001	 220.0	 5	    1.10000	    0.90000;
	1394	 1	 30.93	 7.6	 0.0	 4.69	 0	    1.09915	  -20.44996	 220.0	 5	    1.10000	    0.90000;
	1397	 1	 0.0	 -0.0	 0.0	 2.14	 0	    1.09688	   -5.02287	 220.0	 5	    1.10000	    0.90000;
	1398	 1	 196.7	 44.2	 0.0	 0.1	 0	    1.06902	  -10.59278	 220.0	 5	    1.10000	    0.90000;
	1401	 1	 11.91	 2.9	 0.0	 5.27	 0	    1.07840	   -8.83455	 220.0	 5	    1.10000	    0.90000;
...
];

%% generator data
%	bus	Pg	Qg	Qmax	Qmin	Vg	mBase	status	Pmax	Pmin	Pc1	Pc2	Qc1min	Qc1max	Qc2min	Qc2max	ramp_agc	ramp_10	ramp_30	ramp_q	apf
mpc.gen = [
	124	 333.33	 -139.308	 440.32	 -172.59	 1.07561	 100.0	 1	 1000.0	 333.33	 0.0	 0.0	 0.0	 0.0	 0.0	 0.0	 0.0	 0.0	 0.0	 0.0	 0.0;
	150	 0.236	 -5.063	 77.09	 -22.54	 1.08401	 100.0	 1	 160.0	 0.0	 0.0	 0.0	 0.0	 0.0	 0.0	 0.0	 0.0	 0.0	 0.0	 0.0	 0.0;
	221	 99.999	 -65.268	 183.92	 -65.3	 1.04083	 100.0	 1	 100.0	 -207.18	 0.0	 0.0	 0.0	 0.0	 0.0	 0.0	 0.0	 0.0	 0.0	 0.0	 0.0;
	338	 4.014	 -2.527	 55.54	 -19.16	 1.09918	 100.0	 1	 120.0	 0.0	 0.0	 0.0	 0.0	 0.0	 0.0	 0.0	 0.0	 0.0	 0.0	 0.0	 0.0;
	352	 870.561	 22.55	 926.35	 -297.68	 1.02171	 100.0	 1	 2000.0	 666.67	 0.0	 0.0	 0.0	 0.0	 0.0	 0.0	 0.0	 0.0	 0.0	 0.0	 0.0;
	413	 38.192	 1.281	 124.12	 -49.84	 1.07868	 100.0	 1	 280.0	 0.0	 0.0	 0.0	 0.0	 0.0	 0.0	 0.0	 0.0	 0.0	 0.0	 0.0	 0.0;
	453	 291.297	 -28.211	 257.23	 -74.4	 1.06627	 100.0	 1	 540.0	 0.0	 0.0	 0.0	 0.0	 0.0	 0.0	 0.0	 0.0	 0.0	 0.0	 0.0	 0.0;
	516	 522.918	 79.988	 261.79	 -106.67	 1.08446	 100.0	 1	 600.0	 200.0	 0.0	 0.0	 0.0	 0.0	 0.0	 0.0	 0.0	 0.0	 0.0	 0.0	 0.0;
	564	 100.0	 -19.35	 18.47	 -19.35	 1.09409	 100.0	 1	 100.0	 -68.89	 0.0	 0.0	 0.0	 0.0	 0.0	 0.0	 0.0	 0.0	 0.0	 0.0	 0.0;
	583	 79.019	 17.88	 17.88	 -7.03	 1.09129	 100.0	 1	 100.0	 -360.0	 0.0	 0.0	 0.0	 0.0	 0.0	 0.0	 0.0	 0.0	 0.0	 0.0	 0.0;
	615	 0.0	 -3.68	 17.09	 -7.79	 1.09555	 100.0	 1	 40.0	 0.0	 0.0	 0.0	 0.0	 0.0	 0.0	 0.0	 0.0	 0.0	 0.0	 0.0	 0.0;
	616	 480.0	 49.803	 217.9	 -81.16	 1.1	 100.0	 1	 480.0	 160.0	 0.0	 0.0	 0.0	 0.0	 0.0	 0.0	 0.0	 0.0	 0.0	 0.0	 0.0;
	639	 100.0	 95.004	 135.52	 -38.9	 1.09623	 100.0	 1	 100.0	 -61.6	 0.0	 0.0	 0.0	 0.0	 0.0	 0.0	 0.0	 0.0	 0.0	 0.0	 0.0;
	682	 44.079	 -11.06	 38.77	 -11.06	 1.0865	 100.0	 1	 80.0	 0.0	 0.0	 0.0	 0.0	 0.0	 0.0	 0.0	 0.0	 0.0	 0.0	 0.0	 0.0;
	749	 240.0	 -25.076	 105.69	 -43.84	 1.09241	 100.0	 1	 240.0	 0.0	 0.0	 0.0	 0.0	 0.0	 0.0	 0.0	 0.0	 0.0	 0.0	 0.0	 0.0;
	757	 120.0	 51.3	 51.3	 -23.41	 1.05477	 100.0	 1	 120.0	 0.0	 0.0	 0.0	 0.0	 0.0	 0.0	 0.0	 0.0	 0.0	 0.0	 0.0	 0.0;
	776	 100.0	 11.227	 18.16	 -6.73	 1.09014	 100.0	 1	 100.0	 -148.53	 0.0	 0.0	 0.0	 0.0	 0.0	 0.0	 0.0	 0.0	 0.0	 0.0	 0.0;
	778	 0.017	 -2.639	 12.37	 -9.36	 1.0995	 100.0	 1	 33.58	 0.0	 0.0	 0.0	 0.0	 0.0	 0.0	 0.0	 0.0	 0.0	 0.0	 0.0	 0.0;
	795	 79.999	 0.05	 36.75	 -13.04	 1.1	 100.0	 1	 80.0	 0.0	 0.0	 0.0	 0.0	 0.0	 0.0	 0.0	 0.0	 0.0	 0.0	 0.0	 0.0;
	803	 72.502	 -3.9	 74.03	 -25.54	 1.1	 100.0	 1	 100.0	 -118.93	 0.0	 0.0	 0.0	 0.0	 0.0	 0.0	 0.0	 0.0	 0.0	 0.0	 0.0;
	823	 881.227	 12.926	 926.68	 -298.31	 1.02182	 100.0	 1	 2000.0	 666.67	 0.0	 0.0	 0.0	 0.0	 0.0	 0.0	 0.0	 0.0	 0.0	 0.0	 0.0;
	851	 200.0	 96.639	 96.64	 -27.81	 1.09984	 100.0	 1	 200.0	 0.0	 0.0	 0.0	 0.0	 0.0	 0.0	 0.0	 0.0	 0.0	 0.0	 0.0	 0.0;
	858	 475.974	 77.654	 440.67	 -172.15	 1.03683	 100.0	 1	 1000.0	 333.33	 0.0	 0.0	 0.0	 0.0	 0.0	 0.0	 0.0	 0.0	 0.0	 0.0	 0.0;
	891	 2400.0	 635.379	 1097.41	 -373.91	 1.08559	 100.0	 1	 2400.0	 800.0	 0.0	 0.0	 0.0	 0.0	 0.0	 0.0	 0.0	 0.0	 0.0	 0.0	 0.0;
	972	 666.67	 135.045	 934.73	 -291.52	 1.0655	 100.0	 1	 2000.0	 666.67	 0.0	 0.0	 0.0	 0.0	 0.0	 0.0	 0.0	 0.0	 0.0	 0.0	 0.0;
	1001	 120.0	 55.02	 55.02	 -19.81	 1.08369	 100.0	 1	 120.0	 0.0	 0.0	 0.0	 0.0	 0.0	 0.0	 0.0	 0.0	 0.0	 0.0	 0.0	 0.0;
	1002	 200.0	 89.55	 89.55	 -35.15	 1.08819	 100.0	 1	 200.0	 0.0	 0.0	 0.0	 0.0	 0.0	 0.0	 0.0	 0.0	 0.0	 0.0	 0.0	 0.0;
	1043	 300.002	 0.159	 387.88	 -163.4	 1.07052	 100.0	 1	 900.0	 300.0	 0.0	 0.0	 0.0	 0.0	 0.0	 0.0	 0.0	 0.0	 0.0	 0.0	 0.0;
	1083	 81.834	 5.779	 54.91	 -19.88	 1.1	 100.0	 1	 120.0	 0.0	 0.0	 0.0	 0.0	 0.0	 0.0	 0.0	 0.0	 0.0	 0.0	 0.0	 0.0;
	1093	 1199.999	 170.32	 550.69	 -185.15	 1.07328	 100.0	 1	 1200.0	 400.0	 0.0	 0.0	 0.0	 0.0	 0.0	 0.0	 0.0	 0.0	 0.0	 0.0	 0.0;
	1100	 0.144	 0.0	 36.8	 -13.01	 1.08916	 100.0	 1	 80.0	 0.0	 0.0	 0.0	 0.0	 0.0	 0.0	 0.0	 0.0	 0.0	 0.0	 0.0	 0.0;
	1102	 99.998	 37.972	 38.05	 -11.59	 1.07865	 100.0	 1	 100.0	 -165.54	 0.0	 0.0	 0.0	 0.0	 0.0	 0.0	 0.0	 0.0	 0.0	 0.0	 0.0;
	1237	 1085.836	 118.899	 906.61	 -319.44	 1.07668	 100.0	 1	 2000.0	 666.67	 0.0	 0.0	 0.0	 0.0	 0.0	 0.0	 0.0	 0.0	 0.0	 0.0	 0.0;
	1251	 969.307	 113.292	 550.69	 -185.15	 1.07308	 100.0	 1	 1200.0	 400.0	 0.0	 0.0	 0.0	 0.0	 0.0	 0.0	 0.0	 0.0	 0.0	 0.0	 0.0;
	1295	 99.999	 33.493	 36.92	 -12.88	 1.09927	 100.0	 1	 100.0	 -165.47	 0.0	 0.0	 0.0	 0.0	 0.0	 0.0	 0.0	 0.0	 0.0	 0.0	 0.0;
	1341	 120.0	 57.03	 57.03	 -17.62	 1.08138	 100.0	 1	 120.0	 0.0	 0.0	 0.0	 0.0	 0.0	 0.0	 0.0	 0.0	 0.0	 0.0	 0.0	 0.0;
	1354	 100.0	 38.076	 38.08	 -11.73	 1.08173	 100.0	 1	 100.0	 -328.67	 0.0	 0.0	 0.0	 0.0	 0.0	 0.0	 0.0	 0.0	 0.0	 0.0	 0.0;
	1422	 40.65	 5.498	 18.09	 -6.79	 1.09998	 100.0	 1	 100.0	 -134.67	 0.0	 0.0	 0.0	 0.0	 0.0	 0.0	 0.0	 0.0	 0.0	 0.0	 0.0;
	1436	 0.0	 -12.089	 37.72	 -12.09	 1.09653	 100.0	 1	 80.0	 0.0	 0.0	 0.0	 0.0	 0.0	 0.0	 0.0	 0.0	 0.0	 0.0	 0.0	 0.0;
	1478	 42.984	 -2.714	 36.4	 -13.44	 1.08989	 100.0	 1	 80.0	 0.0	 0.0	 0.0	 0.0	 0.0	 0.0	 0.0	 0.0	 0.0	 0.0	 0.0	 0.0;
	1604	 65.978	 6.971	 37.66	 -12.17	 1.08217	 100.0	 1	 80.0	 0.0	 0.0	 0.0	 0.0	 0.0	 0.0	 0.0	 0.0	 0.0	 0.0	 0.0	 0.0;
	1642	 80.0	 37.739	 37.74	 -12.11	 1.03513	 100.0	 1	 80.0	 0.0	 0.0	 0.0	 0.0	 0.0	 0.0	 0.0	 0.0	 0.0	 0.0	 0.0	 0.0;
	1680	 1709.726	 29.586	 928.89	 -296.1	 1.02186	 100.0	 1	 2000.0	 666.67	 0.0	 0.0	 0.0	 0.0	 0.0	 0.0	 0.0	 0.0	 0.0	 0.0	 0.0;
	1708	 1000.0	 175.066	 439.37	 -173.3	 1.07338	 100.0	 1	 1000.0	 333.33	 0.0	 0.0	 0.0	 0.0	 0.0	 0.0	 0.0	 0.0	 0.0	 0.0	 0.0;
	1721	 5.936	 -2.259	 18.52	 -6.39	 1.08397	 100.0	 1	 40.0	 0.0	 0.0	 0.0	 0.0	 0.0	 0.0	 0.0	 0.0	 0.0	 0.0	 0.0	 0.0;
	1754	 41.06	 -7.92	 16.99	 -7.92	 1.05659	 100.0	 1	 41.06	 0.0	 0.0	 0.0	 0.0	 0.0	 0.0	 0.0	 0.0	 0.0	 0.0	 0.0	 0.0;
	1794	 777.833	 -3.272	 926.35	 -297.68	 1.02007	 100.0	 1	 2000.0	 666.67	 0.0	 0.0	 0.0	 0.0	 0.0	 0.0	 0.0	 0.0	 0.0	 0.0	 0.0;
	1808	 41.016	 12.401	 111.23	 -38.16	 1.08558	 100.0	 1	 100.0	 -0.8	 0.0	 0.0	 0.0	 0.0	 0.0	 0.0	 0.0	 0.0	 0.0	 0.0	 0.0;
	1851	 0.0	 -8.889	 11.76	 -8.89	 1.09655	 100.0	 1	 31.92	 0.0	 0.0	 0.0	 0.0	 0.0	 0.0	 0.0	 0.0	 0.0	 0.0	 0.0	 0.0;
	1852	 100.0	 28.297	 58.16	 -16.52	 1.09979	 100.0	 1	 100.0	 -322.4	 0.0	 0.0	 0.0	 0.0	 0.0	 0.0	 0.0	 0.0	 0.0	 0.0	 0.0;
	1888	 456.779	 206.801	 396.02	 -155.83	 1.06905	 100.0	 1	 912.78	 312.78	 0.0	 0.0	 0.0	 0.0	 0.0	 0.0	 0.0	 0.0	 0.0	 0.0	 0.0;
	1914	 170.21	 0.671	 160.36	 -150.95	 1.09735	 100.0	 1	 472.16	 39.35	 0.0	 0.0	 0.0	 0.0	 0.0	 0.0	 0.0	 0.0	 0.0	 0.0	 0.0;
	1959	 0.0	 -0.0	 18.14	 -6.75	 1.09555	 100.0	 1	 40.0	 0.0	 0.0	 0.0	 0.0	 0.0	 0.0	 0.0	 0.0	 0.0	 0.0	 0.0	 0.0;
	2035	 586.755	 102.479	 441.85	 -171.27	 1.03845	 100.0	 1	 1000.0	 333.33	 0.0	 0.0	 0.0	 0.0	 0.0	 0.0	 0.0	 0.0	 0.0	 0.0	 0.0;
	2050	 666.67	 151.403	 962.2	 -263.65	 1.06896	 100.0	 1	 2000.0	 666.67	 0.0	 0.0	 0.0	 0.0	 0.0	 0.0	 0.0	 0.0	 0.0	 0.0	 0.0;
	2085	 200.0	 16.098	 88.39	 -36.19	 1.03532	 100.0	 1	 200.0	 0.0	 0.0	 0.0	 0.0	 0.0	 0.0	 0.0	 0.0	 0.0	 0.0	 0.0	 0.0;
	2177	 100.0	 -16.26	 58.35	 -16.26	 1.1	 100.0	 1	 100.0	 -161.73	 0.0	 0.0	 0.0	 0.0	 0.0	 0.0	 0.0	 0.0	 0.0	 0.0	 0.0;
	2197	 100.0	 -14.739	 19.51	 -14.74	 1.0733	 100.0	 1	 100.0	 -71.05	 0.0	 0.0	 0.0	 0.0	 0.0	 0.0	 0.0	 0.0	 0.0	 0.0	 0.0;
	2276	 0.051	 -0.002	 41.67	 -36.5	 1.09985	 100.0	 1	 119.3	 0.0	 0.0	 0.0	 0.0	 0.0	 0.0	 0.0	 0.0	 0.0	 0.0	 0.0	 0.0;
	2291	 94.445	 -28.93	 95.69	 -28.93	 1.0917	 100.0	 1	 200.0	 0.0	 0.0	 0.0	 0.0	 0.0	 0.0	 0.0	 0.0	 0.0	 0.0	 0.0	 0.0;
	2359	 80.0	 22.999	 34.35	 -15.5	 1.0746	 100.0	 1	 80.0	 0.0	 0.0	 0.0	 0.0	 0.0	 0.0	 0.0	 0.0	 0.0	 0.0	 0.0	 0.0;
	2421	 100.0	 -12.45	 37.39	 -12.45	 1.07462	 100.0	 1	 100.0	 -427.2	 0.0	 0.0	 0.0	 0.0	 0.0	 0.0	 0.0	 0.0	 0.0	 0.0	 0.0;
	2425	 100.0	 23.371	 54.3	 -20.49	 1.0338	 100.0	 1	 100.0	 -134.0	 0.0	 0.0	 0.0	 0.0	 0.0	 0.0	 0.0	 0.0	 0.0	 0.0	 0.0;
	2426	 100.0	 1.094	 105.34	 -99.02	 1.09867	 100.0	 1	 100.0	 -57.6	 0.0	 0.0	 0.0	 0.0	 0.0	 0.0	 0.0	 0.0	 0.0	 0.0	 0.0;
	2446	 666.67	 14.226	 921.62	 -304.73	 1.03754	 100.0	 1	 2000.0	 666.67	 0.0	 0.0	 0.0	 0.0	 0.0	 0.0	 0.0	 0.0	 0.0	 0.0	 0.0;
	2468	 4.091	 -2.575	 38.02	 -11.81	 1.09917	 100.0	 1	 80.0	 0.0	 0.0	 0.0	 0.0	 0.0	 0.0	 0.0	 0.0	 0.0	 0.0	 0.0	 0.0;
	2481	 80.0	 0.446	 39.12	 -10.71	 1.09365	 100.0	 1	 80.0	 0.0	 0.0	 0.0	 0.0	 0.0	 0.0	 0.0	 0.0	 0.0	 0.0	 0.0	 0.0;
	2489	 68.354	 31.096	 162.4	 -61.79	 1.08374	 100.0	 1	 360.0	 0.0	 0.0	 0.0	 0.0	 0.0	 0.0	 0.0	 0.0	 0.0	 0.0	 0.0	 0.0;
	2550	 0.021	 -4.515	 58.23	 -16.49	 1.09952	 100.0	 1	 120.0	 0.0	 0.0	 0.0	 0.0	 0.0	 0.0	 0.0	 0.0	 0.0	 0.0	 0.0	 0.0;
	2600	 160.0	 0.661	 76.08	 -23.59	 1.0999	 100.0	 1	 160.0	 0.0	 0.0	 0.0	 0.0	 0.0	 0.0	 0.0	 0.0	 0.0	 0.0	 0.0	 0.0;
	2627	 666.67	 11.871	 921.52	 -304.79	 1.03707	 100.0	 1	 2000.0	 666.67	 0.0	 0.0	 0.0	 0.0	 0.0	 0.0	 0.0	 0.0	 0.0	 0.0	 0.0;
	2653	 120.0	 -22.8	 51.94	 -22.8	 1.05713	 100.0	 1	 120.0	 0.0	 0.0	 0.0	 0.0	 0.0	 0.0	 0.0	 0.0	 0.0	 0.0	 0.0	 0.0;
	2719	 196.719	 0.503	 70.15	 -58.1	 1.1	 100.0	 1	 196.72	 0.0	 0.0	 0.0	 0.0	 0.0	 0.0	 0.0	 0.0	 0.0	 0.0	 0.0	 0.0;
	2786	 666.67	 129.733	 934.81	 -291.47	 1.06663	 100.0	 1	 2000.0	 666.67	 0.0	 0.0	 0.0	 0.0	 0.0	 0.0	 0.0	 0.0	 0.0	 0.0	 0.0;
	2797	 80.792	 21.37	 88.33	 -36.33	 1.08915	 100.0	 1	 100.0	 -126.8	 0.0	 0.0	 0.0	 0.0	 0.0	 0.0	 0.0	 0.0	 0.0	 0.0	 0.0;
	2799	 0.0	 -0.003	 77.91	 -21.66	 1.09552	 100.0	 1	 160.0	 0.0	 0.0	 0.0	 0.0	 0.0	 0.0	 0.0	 0.0	 0.0	 0.0	 0.0	 0.0;
	2816	 746.195	 7.621	 926.26	 -297.74	 1.02142	 100.0	 1	 2000.0	 666.67	 0.0	 0.0	 0.0	 0.0	 0.0	 0.0	 0.0	 0.0	 0.0	 0.0	 0.0;
	2841	 0.095	 -0.188	 55.98	 -18.76	 1.09894	 100.0	 1	 120.0	 0.0	 0.0	 0.0	 0.0	 0.0	 0.0	 0.0	 0.0	 0.0	 0.0	 0.0	 0.0;
	2842	 39.999	 7.942	 18.19	 -6.74	 1.08213	 100.0	 1	 40.0	 0.0	 0.0	 0.0	 0.0	 0.0	 0.0	 0.0	 0.0	 0.0	 0.0	 0.0	 0.0;
	2872	 9.05	 -2.539	 3.31	 -2.54	 1.08951	 100.0	 1	 9.05	 0.0	 0.0	 0.0	 0.0	 0.0	 0.0	 0.0	 0.0	 0.0	 0.0	 0.0	 0.0;
	2878	 214.86	 10.691	 72.95	 -68.71	 1.09224	 100.0	 1	 214.86	 0.0	 0.0	 0.0	 0.0	 0.0	 0.0	 0.0	 0.0	 0.0	 0.0	 0.0	 0.0;
	2886	 1.737	 -17.017	 57.69	 -17.02	 1.08872	 100.0	 1	 120.0	 0.0	 0.0	 0.0	 0.0	 0.0	 0.0	 0.0	 0.0	 0.0	 0.0	 0.0	 0.0;
	2902	 0.028	 -3.095	 19.19	 -5.72	 1.09986	 100.0	 1	 40.0	 0.0	 0.0	 0.0	 0.0	 0.0	 0.0	 0.0	 0.0	 0.0	 0.0	 0.0	 0.0;
	2930	 0.0	 -12.539	 37.24	 -12.54	 1.09651	 100.0	 1	 80.0	 0.0	 0.0	 0.0	 0.0	 0.0	 0.0	 0.0	 0.0	 0.0	 0.0	 0.0	 0.0;
	2934	 0.013	 -0.002	 2.51	 -1.91	 1.09951	 100.0	 1	 6.83	 0.0	 0.0	 0.0	 0.0	 0.0	 0.0	 0.0	 0.0	 0.0	 0.0	 0.0	 0.0;
	2985	 37.544	 -4.953	 184.46	 -132.67	 1.08675	 100.0	 1	 493.35	 0.0	 0.0	 0.0	 0.0	 0.0	 0.0	 0.0	 0.0	 0.0	 0.0	 0.0	 0.0;
	3018	 0.0	 -8.354	 89.61	 -34.82	 1.0961	 100.0	 1	 200.0	 0.0	 0.0	 0.0	 0.0	 0.0	 0.0	 0.0	 0.0	 0.0	 0.0	 0.0	 0.0;
	3028	 541.62	 93.675	 441.85	 -171.27	 1.03815	 100.0	 1	 1000.0	 333.33	 0.0	 0.0	 0.0	 0.0	 0.0	 0.0	 0.0	 0.0	 0.0	 0.0	 0.0;
	3114	 24.466	 -7.61	 17.33	 -7.61	 1.09369	 100.0	 1	 40.0	 0.0	 0.0	 0.0	 0.0	 0.0	 0.0	 0.0	 0.0	 0.0	 0.0	 0.0	 0.0;
	3133	 20.113	 -35.558	 113.97	 -35.56	 1.085	 100.0	 1	 240.0	 0.0	 0.0	 0.0	 0.0	 0.0	 0.0	 0.0	 0.0	 0.0	 0.0	 0.0	 0.0;
	3134	 61.856	 24.453	 70.25	 -29.33	 1.09648	 100.0	 1	 100.0	 -181.73	 0.0	 0.0	 0.0	 0.0	 0.0	 0.0	 0.0	 0.0	 0.0	 0.0	 0.0;
	3183	 0.0	 -0.0	 53.7	 -20.98	 1.09552	 100.0	 1	 120.0	 0.0	 0.0	 0.0	 0.0	 0.0	 0.0	 0.0	 0.0	 0.0	 0.0	 0.0	 0.0;
	3205	 283.41	 97.898	 243.61	 -88.46	 1.06126	 100.0	 1	 540.0	 0.0	 0.0	 0.0	 0.0	 0.0	 0.0	 0.0	 0.0	 0.0	 0.0	 0.0	 0.0;
	3218	 89.394	 12.126	 36.79	 -13.0	 1.0949	 100.0	 1	 100.0	 -143.2	 0.0	 0.0	 0.0	 0.0	 0.0	 0.0	 0.0	 0.0	 0.0	 0.0	 0.0;
	3240	 -56.4	 6.388	 62.23	 -51.37	 1.08783	 100.0	 1	 100.0	 -56.4	 0.0	 0.0	 0.0	 0.0	 0.0	 0.0	 0.0	 0.0	 0.0	 0.0	 0.0;
	3306	 333.33	 -11.519	 439.2	 -173.43	 1.07183	 100.0	 1	 1000.0	 333.33	 0.0	 0.0	 0.0	 0.0	 0.0	 0.0	 0.0	 0.0	 0.0	 0.0	 0.0;
	3324	 100.0	 38.13	 38.13	 -11.64	 1.08204	 100.0	 1	 100.0	 -35.3	 0.0	 0.0	 0.0	 0.0	 0.0	 0.0	 0.0	 0.0	 0.0	 0.0	 0.0;
	3346	 80.0	 37.1	 37.1	 -12.76	 1.04981	 100.0	 1	 80.0	 0.0	 0.0	 0.0	 0.0	 0.0	 0.0	 0.0	 0.0	 0.0	 0.0	 0.0	 0.0;
	3353	 0.001	 -2.778	 38.2	 -11.61	 1.08845	 100.0	 1	 80.0	 0.0	 0.0	 0.0	 0.0	 0.0	 0.0	 0.0	 0.0	 0.0	 0.0	 0.0	 0.0;
	3364	 0.0	 -0.003	 47.19	 -41.44	 1.09552	 100.0	 1	 135.27	 0.0	 0.0	 0.0	 0.0	 0.0	 0.0	 0.0	 0.0	 0.0	 0.0	 0.0	 0.0;
	3390	 120.0	 54.59	 54.59	 -20.19	 1.06749	 100.0	 1	 120.0	 0.0	 0.0	 0.0	 0.0	 0.0	 0.0	 0.0	 0.0	 0.0	 0.0	 0.0	 0.0;
	3422	 0.0	 -9.465	 58.19	 -16.5	 1.09558	 100.0	 1	 120.0	 0.0	 0.0	 0.0	 0.0	 0.0	 0.0	 0.0	 0.0	 0.0	 0.0	 0.0	 0.0;
	3436	 1200.0	 76.816	 550.97	 -184.89	 1.08831	 100.0	 1	 1200.0	 400.0	 0.0	 0.0	 0.0	 0.0	 0.0	 0.0	 0.0	 0.0	 0.0	 0.0	 0.0;
	3492	 89.108	 6.061	 53.75	 -21.08	 1.09967	 100.0	 1	 100.0	 -494.4	 0.0	 0.0	 0.0	 0.0	 0.0	 0.0	 0.0	 0.0	 0.0	 0.0	 0.0;
	3513	 857.958	 125.551	 387.88	 -163.4	 1.07049	 100.0	 1	 900.0	 300.0	 0.0	 0.0	 0.0	 0.0	 0.0	 0.0	 0.0	 0.0	 0.0	 0.0	 0.0;
	3565	 42.739	 -10.928	 38.83	 -10.97	 1.09895	 100.0	 1	 80.0	 0.0	 0.0	 0.0	 0.0	 0.0	 0.0	 0.0	 0.0	 0.0	 0.0	 0.0	 0.0;
	3580	 522.915	 80.003	 261.7	 -107.36	 1.08469	 100.0	 1	 600.0	 0.0	 0.0	 0.0	 0.0	 0.0	 0.0	 0.0	 0.0	 0.0	 0.0	 0.0	 0.0;
	3611	 100.0	 32.627	 54.59	 -20.12	 1.09323	 100.0	 1	 100.0	 -167.2	 0.0	 0.0	 0.0	 0.0	 0.0	 0.0	 0.0	 0.0	 0.0	 0.0	 0.0;
	3656	 100.0	 -33.32	 116.07	 -33.32	 1.09385	 100.0	 1	 100.0	 -34.93	 0.0	 0.0	 0.0	 0.0	 0.0	 0.0	 0.0	 0.0	 0.0	 0.0	 0.0;
	3661	 333.33	 -34.584	 441.04	 -172.05	 1.06706	 100.0	 1	 1000.0	 333.33	 0.0	 0.0	 0.0	 0.0	 0.0	 0.0	 0.0	 0.0	 0.0	 0.0	 0.0;
	3698	 100.0	 25.987	 36.34	 -13.47	 1.09007	 100.0	 1	 100.0	 -16.78	 0.0	 0.0	 0.0	 0.0	 0.0	 0.0	 0.0	 0.0	 0.0	 0.0	 0.0;
	3741	 586.755	 102.676	 548.57	 -187.16	 1.03851	 100.0	 1	 1200.0	 400.0	 0.0	 0.0	 0.0	 0.0	 0.0	 0.0	 0.0	 0.0	 0.0	 0.0	 0.0;
	3809	 700.0	 135.115	 313.01	 -116.73	 1.1	 100.0	 1	 700.0	 233.33	 0.0	 0.0	 0.0	 0.0	 0.0	 0.0	 0.0	 0.0	 0.0	 0.0	 0.0;
	3825	 899.997	 112.612	 388.17	 -163.4	 1.07303	 100.0	 1	 900.0	 300.0	 0.0	 0.0	 0.0	 0.0	 0.0	 0.0	 0.0	 0.0	 0.0	 0.0	 0.0;
	3869	 515.638	 84.875	 440.69	 -172.14	 1.03707	 100.0	 1	 1000.0	 333.33	 0.0	 0.0	 0.0	 0.0	 0.0	 0.0	 0.0	 0.0	 0.0	 0.0	 0.0;
	3876	 100.0	 34.27	 34.27	 -15.52	 1.0725	 100.0	 1	 100.0	 -33.47	 0.0	 0.0	 0.0	 0.0	 0.0	 0.0	 0.0	 0.0	 0.0	 0.0	 0.0;
	3916	 100.0	 38.02	 38.02	 -11.77	 1.07575	 100.0	 1	 100.0	 -28.37	 0.0	 0.0	 0.0	 0.0	 0.0	 0.0	 0.0	 0.0	 0.0	 0.0	 0.0;
	3951	 -29.638	 -6.248	 126.16	 -127.56	 1.09532	 100.0	 1	 100.0	 -36.13	 0.0	 0.0	 0.0	 0.0	 0.0	 0.0	 0.0	 0.0	 0.0	 0.0	 0.0;
	3971	 -0.0	 0.001	 55.67	 -19.09	 1.09287	 100.0	 1	 100.0	 -179.33	 0.0	 0.0	 0.0	 0.0	 0.0	 0.0	 0.0	 0.0	 0.0	 0.0	 0.0;
	4024	 200.0	 16.102	 97.07	 -27.44	 1.03532	 100.0	 1	 200.0	 0.0	 0.0	 0.0	 0.0	 0.0	 0.0	 0.0	 0.0	 0.0	 0.0	 0.0	 0.0;
	4056	 56.049	 -3.228	 38.05	 -11.77	 1.09236	 100.0	 1	 100.0	 -102.53	 0.0	 0.0	 0.0	 0.0	 0.0	 0.0	 0.0	 0.0	 0.0	 0.0	 0.0;
	4084	 372.273	 6.943	 264.94	 -103.74	 1.09287	 100.0	 1	 600.0	 0.0	 0.0	 0.0	 0.0	 0.0	 0.0	 0.0	 0.0	 0.0	 0.0	 0.0	 0.0;
	4118	 80.0	 1.464	 38.37	 -11.4	 1.09116	 100.0	 1	 80.0	 0.0	 0.0	 0.0	 0.0	 0.0	 0.0	 0.0	 0.0	 0.0	 0.0	 0.0	 0.0;
	4125	 80.0	 36.89	 36.89	 -13.0	 1.03236	 100.0	 1	 80.0	 0.0	 0.0	 0.0	 0.0	 0.0	 0.0	 0.0	 0.0	 0.0	 0.0	 0.0	 0.0;
	4128	 120.0	 57.03	 57.03	 -17.63	 1.09411	 100.0	 1	 120.0	 0.0	 0.0	 0.0	 0.0	 0.0	 0.0	 0.0	 0.0	 0.0	 0.0	 0.0	 0.0;
	4231	 1333.33	 178.013	 99999.0	 -99999.0	 1.06971	 100.0	 1	 4188.95	 1333.33	 0.0	 0.0	 0.0	 0.0	 0.0	 0.0	 0.0	 0.0	 0.0	 0.0	 0.0;
	4331	 37.377	 11.813	 36.73	 -13.12	 1.09491	 100.0	 1	 80.0	 0.0	 0.0	 0.0	 0.0	 0.0	 0.0	 0.0	 0.0	 0.0	 0.0	 0.0	 0.0;
	4395	 100.0	 38.48	 38.48	 -11.33	 1.08797	 100.0	 1	 100.0	 -172.13	 0.0	 0.0	 0.0	 0.0	 0.0	 0.0	 0.0	 0.0	 0.0	 0.0	 0.0;
	4419	 333.33	 -46.335	 441.04	 -172.05	 1.06698	 100.0	 1	 1000.0	 333.33	 0.0	 0.0	 0.0	 0.0	 0.0	 0.0	 0.0	 0.0	 0.0	 0.0	 0.0;
	4480	 333.33	 -11.747	 439.2	 -173.43	 1.07186	 100.0	 1	 1000.0	 333.33	 0.0	 0.0	 0.0	 0.0	 0.0	 0.0	 0.0	 0.0	 0.0	 0.0	 0.0;
	4482	 42.086	 12.169	 38.85	 -10.95	 1.08102	 100.0	 1	 80.0	 0.0	 0.0	 0.0	 0.0	 0.0	 0.0	 0.0	 0.0	 0.0	 0.0	 0.0	 0.0;
	4506	 100.0	 37.86	 37.86	 -11.95	 1.05506	 100.0	 1	 100.0	 -229.07	 0.0	 0.0	 0.0	 0.0	 0.0	 0.0	 0.0	 0.0	 0.0	 0.0	 0.0;
	4566	 100.0	 3.271	 37.94	 -11.87	 1.1	 100.0	 1	 100.0	 -40.51	 0.0	 0.0	 0.0	 0.0	 0.0	 0.0	 0.0	 0.0	 0.0	 0.0	 0.0;
	4624	 80.0	 35.62	 35.62	 -14.19	 1.09134	 100.0	 1	 80.0	 0.0	 0.0	 0.0	 0.0	 0.0	 0.0	 0.0	 0.0	 0.0	 0.0	 0.0	 0.0;
	4661	 74.193	 -5.77	 19.14	 -5.77	 1.1	 100.0	 1	 100.0	 -105.2	 0.0	 0.0	 0.0	 0.0	 0.0	 0.0	 0.0	 0.0	 0.0	 0.0	 0.0;
	4701	 0.328	 -0.0	 98.4	 -86.29	 1.07987	 100.0	 1	 281.85	 0.0	 0.0	 0.0	 0.0	 0.0	 0.0	 0.0	 0.0	 0.0	 0.0	 0.0	 0.0;
	4783	 333.33	 -10.884	 439.2	 -173.43	 1.07183	 100.0	 1	 1000.0	 333.33	 0.0	 0.0	 0.0	 0.0	 0.0	 0.0	 0.0	 0.0	 0.0	 0.0	 0.0;
	4816	 100.0	 38.37	 38.37	 -11.44	 1.08774	 100.0	 1	 100.0	 -34.77	 0.0	 0.0	 0.0	 0.0	 0.0	 0.0	 0.0	 0.0	 0.0	 0.0	 0.0;
	4819	 562.514	 93.135	 440.69	 -172.14	 1.03723	 100.0	 1	 1000.0	 333.33	 0.0	 0.0	 0.0	 0.0	 0.0	 0.0	 0.0	 0.0	 0.0	 0.0	 0.0;
	4823	 10.46	 -2.07	 4.44	 -2.07	 1.0973	 100.0	 1	 10.46	 0.0	 0.0	 0.0	 0.0	 0.0	 0.0	 0.0	 0.0	 0.0	 0.0	 0.0	 0.0;
	4850	 46.645	 -2.798	 76.52	 -23.19	 1.08947	 100.0	 1	 160.0	 0.0	 0.0	 0.0	 0.0	 0.0	 0.0	 0.0	 0.0	 0.0	 0.0	 0.0	 0.0;
	4880	 5.8	 -0.444	 75.62	 -23.96	 1.1	 100.0	 1	 100.0	 -53.73	 0.0	 0.0	 0.0	 0.0	 0.0	 0.0	 0.0	 0.0	 0.0	 0.0	 0.0;
	4918	 80.0	 37.27	 37.27	 -12.57	 1.06862	 100.0	 1	 80.0	 0.0	 0.0	 0.0	 0.0	 0.0	 0.0	 0.0	 0.0	 0.0	 0.0	 0.0	 0.0;
	4952	 70.203	 6.993	 37.23	 -12.61	 1.09326	 100.0	 1	 100.0	 -16.77	 0.0	 0.0	 0.0	 0.0	 0.0	 0.0	 0.0	 0.0	 0.0	 0.0	 0.0;
	5004	 218.758	 -17.774	 74.73	 -70.41	 1.09851	 100.0	 1	 220.12	 0.0	 0.0	 0.0	 0.0	 0.0	 0.0	 0.0	 0.0	 0.0	 0.0	 0.0	 0.0;
	5019	 0.0	 -12.089	 37.72	 -12.09	 1.09653	 100.0	 1	 80.0	 0.0	 0.0	 0.0	 0.0	 0.0	 0.0	 0.0	 0.0	 0.0	 0.0	 0.0	 0.0;
	5051	 0.0	 -0.957	 74.55	 -24.97	 1.09568	 100.0	 1	 160.0	 0.0	 0.0	 0.0	 0.0	 0.0	 0.0	 0.0	 0.0	 0.0	 0.0	 0.0	 0.0;
	5067	 600.0	 60.622	 258.91	 -109.58	 1.02507	 100.0	 1	 600.0	 0.0	 0.0	 0.0	 0.0	 0.0	 0.0	 0.0	 0.0	 0.0	 0.0	 0.0	 0.0;
	5110	 100.0	 38.279	 38.28	 -11.5	 1.09483	 100.0	 1	 100.0	 -70.01	 0.0	 0.0	 0.0	 0.0	 0.0	 0.0	 0.0	 0.0	 0.0	 0.0	 0.0;
	5120	 0.062	 -0.002	 56.35	 -18.42	 1.09985	 100.0	 1	 120.0	 0.0	 0.0	 0.0	 0.0	 0.0	 0.0	 0.0	 0.0	 0.0	 0.0	 0.0	 0.0;
	5144	 1216.598	 119.099	 882.86	 -343.24	 1.07333	 100.0	 1	 2000.0	 666.67	 0.0	 0.0	 0.0	 0.0	 0.0	 0.0	 0.0	 0.0	 0.0	 0.0	 0.0;
	5237	 64.054	 -24.74	 75.02	 -24.74	 1.08999	 100.0	 1	 160.0	 0.0	 0.0	 0.0	 0.0	 0.0	 0.0	 0.0	 0.0	 0.0	 0.0	 0.0	 0.0;
	5278	 120.0	 24.279	 51.3	 -23.49	 1.0902	 100.0	 1	 120.0	 0.0	 0.0	 0.0	 0.0	 0.0	 0.0	 0.0	 0.0	 0.0	 0.0	 0.0	 0.0;
	5340	 100.0	 36.369	 36.37	 -13.43	 1.0899	 100.0	 1	 100.0	 -212.0	 0.0	 0.0	 0.0	 0.0	 0.0	 0.0	 0.0	 0.0	 0.0	 0.0	 0.0;
	5365	 0.0	 -6.75	 18.14	 -6.75	 1.09687	 100.0	 1	 40.0	 0.0	 0.0	 0.0	 0.0	 0.0	 0.0	 0.0	 0.0	 0.0	 0.0	 0.0	 0.0;
	5379	 1085.836	 119.722	 926.47	 -297.63	 1.07677	 100.0	 1	 2000.0	 666.67	 0.0	 0.0	 0.0	 0.0	 0.0	 0.0	 0.0	 0.0	 0.0	 0.0	 0.0;
	5395	 100.0	 0.113	 58.06	 -16.66	 1.0969	 100.0	 1	 100.0	 -527.73	 0.0	 0.0	 0.0	 0.0	 0.0	 0.0	 0.0	 0.0	 0.0	 0.0	 0.0;
	5461	 80.0	 38.26	 38.26	 -11.55	 1.078	 100.0	 1	 80.0	 0.0	 0.0	 0.0	 0.0	 0.0	 0.0	 0.0	 0.0	 0.0	 0.0	 0.0	 0.0;
	5481	 885.479	 21.959	 920.31	 -305.64	 1.07719	 100.0	 1	 2000.0	 666.67	 0.0	 0.0	 0.0	 0.0	 0.0	 0.0	 0.0	 0.0	 0.0	 0.0	 0.0;
	5482	 41.478	 -48.119	 101.32	 -48.12	 1.09997	 100.0	 1	 249.06	 0.0	 0.0	 0.0	 0.0	 0.0	 0.0	 0.0	 0.0	 0.0	 0.0	 0.0	 0.0;
	5486	 333.33	 -34.624	 441.04	 -172.05	 1.06707	 100.0	 1	 1000.0	 333.33	 0.0	 0.0	 0.0	 0.0	 0.0	 0.0	 0.0	 0.0	 0.0	 0.0	 0.0;
	5488	 100.0	 37.49	 37.49	 -12.33	 1.08171	 100.0	 1	 100.0	 -128.53	 0.0	 0.0	 0.0	 0.0	 0.0	 0.0	 0.0	 0.0	 0.0	 0.0	 0.0;
	5490	 3399.405	 56.824	 1765.36	 -686.67	 1.07937	 100.0	 1	 4000.0	 1333.33	 0.0	 0.0	 0.0	 0.0	 0.0	 0.0	 0.0	 0.0	 0.0	 0.0	 0.0;
	5533	 200.0	 8.135	 88.87	 -35.71	 1.09954	 100.0	 1	 200.0	 0.0	 0.0	 0.0	 0.0	 0.0	 0.0	 0.0	 0.0	 0.0	 0.0	 0.0	 0.0;
	5546	 0.04	 -0.001	 19.16	 -5.75	 1.09985	 100.0	 1	 40.0	 0.0	 0.0	 0.0	 0.0	 0.0	 0.0	 0.0	 0.0	 0.0	 0.0	 0.0	 0.0;
	5564	 80.0	 22.367	 36.8	 -12.99	 1.09784	 100.0	 1	 80.0	 0.0	 0.0	 0.0	 0.0	 0.0	 0.0	 0.0	 0.0	 0.0	 0.0	 0.0	 0.0;
	5658	 240.0	 103.18	 103.18	 -46.25	 1.05463	 100.0	 1	 240.0	 0.0	 0.0	 0.0	 0.0	 0.0	 0.0	 0.0	 0.0	 0.0	 0.0	 0.0	 0.0;
	5664	 2.461	 0.769	 72.71	 -27.05	 1.08254	 100.0	 1	 160.0	 0.0	 0.0	 0.0	 0.0	 0.0	 0.0	 0.0	 0.0	 0.0	 0.0	 0.0	 0.0;
	5709	 969.306	 113.126	 550.69	 -185.15	 1.07306	 100.0	 1	 1200.0	 400.0	 0.0	 0.0	 0.0	 0.0	 0.0	 0.0	 0.0	 0.0	 0.0	 0.0	 0.0;
	5781	 1745.3	 71.641	 779.29	 -324.79	 1.0699	 100.0	 1	 1800.0	 600.0	 0.0	 0.0	 0.0	 0.0	 0.0	 0.0	 0.0	 0.0	 0.0	 0.0	 0.0;
	5814	 440.0	 112.684	 196.98	 -77.17	 1.08364	 100.0	 1	 440.0	 146.67	 0.0	 0.0	 0.0	 0.0	 0.0	 0.0	 0.0	 0.0	 0.0	 0.0	 0.0;
	5856	 480.0	 87.252	 214.13	 -85.0	 1.09406	 100.0	 1	 480.0	 160.0	 0.0	 0.0	 0.0	 0.0	 0.0	 0.0	 0.0	 0.0	 0.0	 0.0	 0.0;
	5881	 48.024	 -5.985	 36.72	 -13.13	 1.09001	 100.0	 1	 80.0	 0.0	 0.0	 0.0	 0.0	 0.0	 0.0	 0.0	 0.0	 0.0	 0.0	 0.0	 0.0;
	5940	 100.0	 17.21	 17.21	 -7.73	 1.09463	 100.0	 1	 100.0	 -99.87	 0.0	 0.0	 0.0	 0.0	 0.0	 0.0	 0.0	 0.0	 0.0	 0.0	 0.0;
	5971	 666.67	 117.9	 934.54	 -291.64	 1.06431	 100.0	 1	 2000.0	 666.67	 0.0	 0.0	 0.0	 0.0	 0.0	 0.0	 0.0	 0.0	 0.0	 0.0	 0.0;
	5983	 100.0	 -12.59	 37.27	 -12.59	 1.0817	 100.0	 1	 100.0	 -136.67	 0.0	 0.0	 0.0	 0.0	 0.0	 0.0	 0.0	 0.0	 0.0	 0.0	 0.0;
	5994	 58.904	 11.11	 60.51	 -61.08	 1.1	 100.0	 1	 100.0	 -116.4	 0.0	 0.0	 0.0	 0.0	 0.0	 0.0	 0.0	 0.0	 0.0	 0.0	 0.0;
	6036	 768.79	 -43.851	 390.4	 -161.16	 1.06051	 100.0	 1	 900.0	 300.0	 0.0	 0.0	 0.0	 0.0	 0.0	 0.0	 0.0	 0.0	 0.0	 0.0	 0.0;
	6153	 32.081	 9.973	 249.65	 -261.82	 1.05254	 100.0	 1	 769.94	 32.08	 0.0	 0.0	 0.0	 0.0	 0.0	 0.0	 0.0	 0.0	 0.0	 0.0	 0.0;
	6168	 0.0	 -0.061	 19.86	 -14.93	 1.09999	 100.0	 1	 53.76	 0.0	 0.0	 0.0	 0.0	 0.0	 0.0	 0.0	 0.0	 0.0	 0.0	 0.0	 0.0;
	6291	 120.0	 13.309	 58.12	 -16.6	 1.08711	 100.0	 1	 120.0	 0.0	 0.0	 0.0	 0.0	 0.0	 0.0	 0.0	 0.0	 0.0	 0.0	 0.0	 0.0;
	6331	 0.0	 0.0	 37.76	 -12.05	 1.08783	 100.0	 1	 80.0	 0.0	 0.0	 0.0	 0.0	 0.0	 0.0	 0.0	 0.0	 0.0	 0.0	 0.0	 0.0;
	6332	 0.0	 -27.086	 96.56	 -27.95	 1.09608	 100.0	 1	 200.0	 0.0	 0.0	 0.0	 0.0	 0.0	 0.0	 0.0	 0.0	 0.0	 0.0	 0.0	 0.0;
	6351	 80.0	 38.29	 38.29	 -11.56	 1.09818	 100.0	 1	 80.0	 0.0	 0.0	 0.0	 0.0	 0.0	 0.0	 0.0	 0.0	 0.0	 0.0	 0.0	 0.0;
	6368	 100.0	 51.106	 51.11	 -23.46	 1.0756	 100.0	 1	 100.0	 -193.73	 0.0	 0.0	 0.0	 0.0	 0.0	 0.0	 0.0	 0.0	 0.0	 0.0	 0.0;
	6376	 11.787	 19.953	 148.65	 -50.73	 1.08415	 100.0	 1	 100.0	 -37.07	 0.0	 0.0	 0.0	 0.0	 0.0	 0.0	 0.0	 0.0	 0.0	 0.0	 0.0;
	6429	 200.0	 23.695	 88.83	 -35.69	 1.07348	 100.0	 1	 200.0	 0.0	 0.0	 0.0	 0.0	 0.0	 0.0	 0.0	 0.0	 0.0	 0.0	 0.0	 0.0;
	6474	 333.33	 1.707	 438.72	 -174.15	 1.0929	 100.0	 1	 1000.0	 333.33	 0.0	 0.0	 0.0	 0.0	 0.0	 0.0	 0.0	 0.0	 0.0	 0.0	 0.0;
	6516	 118.447	 87.474	 126.73	 -47.83	 1.09412	 100.0	 1	 280.0	 0.0	 0.0	 0.0	 0.0	 0.0	 0.0	 0.0	 0.0	 0.0	 0.0	 0.0	 0.0;
	6552	 100.0	 20.801	 37.58	 -12.16	 1.1	 100.0	 1	 100.0	 -272.27	 0.0	 0.0	 0.0	 0.0	 0.0	 0.0	 0.0	 0.0	 0.0	 0.0	 0.0;
	6734	 54.143	 4.883	 311.52	 -132.09	 1.09868	 100.0	 1	 720.0	 0.0	 0.0	 0.0	 0.0	 0.0	 0.0	 0.0	 0.0	 0.0	 0.0	 0.0	 0.0;
	6807	 26.491	 63.422	 77.14	 -22.46	 1.1	 100.0	 1	 160.0	 0.0	 0.0	 0.0	 0.0	 0.0	 0.0	 0.0	 0.0	 0.0	 0.0	 0.0	 0.0;
	6816	 49.875	 -6.098	 77.35	 -22.26	 1.09985	 100.0	 1	 160.0	 0.0	 0.0	 0.0	 0.0	 0.0	 0.0	 0.0	 0.0	 0.0	 0.0	 0.0	 0.0;
	6820	 0.017	 -0.001	 11.99	 -9.06	 1.0995	 100.0	 1	 32.53	 0.0	 0.0	 0.0	 0.0	 0.0	 0.0	 0.0	 0.0	 0.0	 0.0	 0.0	 0.0;
	6831	 100.0	 35.62	 35.62	 -14.25	 1.09613	 100.0	 1	 100.0	 -76.67	 0.0	 0.0	 0.0	 0.0	 0.0	 0.0	 0.0	 0.0	 0.0	 0.0	 0.0;
	6845	 120.0	 33.944	 53.24	 -21.47	 1.09026	 100.0	 1	 120.0	 0.0	 0.0	 0.0	 0.0	 0.0	 0.0	 0.0	 0.0	 0.0	 0.0	 0.0	 0.0;
	6852	 3.065	 -5.813	 18.56	 -6.34	 1.09567	 100.0	 1	 100.0	 -459.87	 0.0	 0.0	 0.0	 0.0	 0.0	 0.0	 0.0	 0.0	 0.0	 0.0	 0.0;
	6857	 3344.791	 369.895	 1865.83	 -585.95	 1.05206	 100.0	 1	 4000.0	 1333.33	 0.0	 0.0	 0.0	 0.0	 0.0	 0.0	 0.0	 0.0	 0.0	 0.0	 0.0;
	6888	 88.67	 -13.776	 189.31	 -59.87	 1.1	 100.0	 1	 300.0	 88.67	 0.0	 0.0	 0.0	 0.0	 0.0	 0.0	 0.0	 0.0	 0.0	 0.0	 0.0;
	6947	 9.587	 88.564	 126.09	 -48.29	 1.08857	 100.0	 1	 280.0	 0.0	 0.0	 0.0	 0.0	 0.0	 0.0	 0.0	 0.0	 0.0	 0.0	 0.0	 0.0;
...
];

%% generator cost data
%	2	startup	shutdown	n	c(n-1)	...	c0
mpc.gencost = [
	2	 0.0	 0.0	 3	   0.000000	   1.000000	   0.000000;
	2	 0.0	 0.0	 3	   0.000000	   1.000000	   0.000000;
	2	 0.0	 0.0	 3	   0.000000	   1.000000	   0.000000;
	2	 0.0	 0.0	 3	   0.000000	   1.000000	   0.000000;
	2	 0.0	 0.0	 3	   0.000000	   1.000000	   0.000000;
	2	 0.0	 0.0	 3	   0.000000	   1.000000	   0.000000;
	2	 0.0	 0.0	 3	   0.000000	   1.000000	   0.000000;
	2	 0.0	 0.0	 3	   0.000000	   1.000000	   0.000000;
	2	 0.0	 0.0	 3	   0.000000	   1.000000	   0.000000;
	2	 0.0	 0.0	 3	   0.000000	   1.000000	   0.000000;
	2	 0.0	 0.0	 3	   0.000000	   1.000000	   0.000000;
	2	 0.0	 0.0	 3	   0.000000	   1.000000	   0.000000;
	2	 0.0	 0.0	 3	   0.000000	   1.000000	   0.000000;
	2	 0.0	 0.0	 3	   0.000000	   1.000000	   0.000000;
	2	 0.0	 0.0	 3	   0.000000	   1.000000	   0.000000;
	2	 0.0	 0.0	 3	   0.000000	   1.000000	   0.000000;
	2	 0.0	 0.0	 3	   0.000000	   1.000000	   0.000000;
	2	 0.0	 0.0	 3	   0.000000	   1.000000	   0.000000;
	2	 0.0	 0.0	 3	   0.000000	   1.000000	   0.000000;
	2	 0.0	 0.0	 3	   0.000000	   1.000000	   0.000000;
	2	 0.0	 0.0	 3	   0.000000	   1.000000	   0.000000;
	2	 0.0	 0.0	 3	   0.000000	   1.000000	   0.000000;
	2	 0.0	 0.0	 3	   0.000000	   1.000000	   0.000000;
	2	 0.0	 0.0	 3	   0.000000	   1.000000	   0.000000;
	2	 0.0	 0.0	 3	   0.000000	   1.000000	   0.000000;
	2	 0.0	 0.0	 3	   0.000000	   1.000000	   0.000000;
	2	 0.0	 0.0	 3	   0.000000	   1.000000	   0.000000;
	2	 0.0	 0.0	 3	   0.000000	   1.000000	   0.000000;
	2	 0.0	 0.0	 3	   0.000000	   1.000000	   0.000000;
	2	 0.0	 0.0	 3	   0.000000	   1.000000	   0.000000;
	2	 0.0	 0.0	 3	   0.000000	   1.000000	   0.000000;
	2	 0.0	 0.0	 3	   0.000000	   1.000000	   0.000000;
	2	 0.0	 0.0	 3	   0.000000	   1.000000	   0.000000;
	2	 0.0	 0.0	 3	   0.000000	   1.000000	   0.000000;
	2	 0.0	 0.0	 3	   0.000000	   1.000000	   0.000000;
	2	 0.0	 0.0	 3	   0.000000	   1.000000	   0.000000;
	2	 0.0	 0.0	 3	   0.000000	   1.000000	   0.000000;
	2	 0.0	 0.0	 3	   0.000000	   1.000000	   0.000000;
	2	 0.0	 0.0	 3	   0.000000	   1.000000	   0.000000;
	2	 0.0	 0.0	 3	   0.000000	   1.000000	   0.000000;
	2	 0.0	 0.0	 3	   0.000000	   1.000000	   0.000000;
	2	 0.0	 0.0	 3	   0.000000	   1.000000	   0.000000;
	2	 0.0	 0.0	 3	   0.000000	   1.000000	   0.000000;
	2	 0.0	 0.0	 3	   0.000000	   1.000000	   0.000000;
	2	 0.0	 0.0	 3	   0.000000	   1.000000	   0.000000;
	2	 0.0	 0.0	 3	   0.000000	   1.000000	   0.000000;
	2	 0.0	 0.0	 3	   0.000000	   1.000000	   0.000000;
	2	 0.0	 0.0	 3	   0.000000	   1.000000	   0.000000;
	2	 0.0	 0.0	 3	   0.000000	   1.000000	   0.000000;
	2	 0.0	 0.0	 3	   0.000000	   1.000000	   0.000000;
	2	 0.0	 0.0	 3	   0.000000	   1.000000	   0.000000;
	2	 0.0	 0.0	 3	   0.000000	   1.000000	   0.000000;
	2	 0.0	 0.0	 3	   0.000000	   1.000000	   0.000000;
	2	 0.0	 0.0	 3	   0.000000	   1.000000	   0.000000;
	2	 0.0	 0.0	 3	   0.000000	   1.000000	   0.000000;
	2	 0.0	 0.0	 3	   0.000000	   1.000000	   0.000000;
	2	 0.0	 0.0	 3	   0.000000	   1.000000	   0.000000;
	2	 0.0	 0.0	 3	   0.000000	   1.000000	   0.000000;
	2	 0.0	 0.0	 3	   0.000000	   1.000000	   0.000000;
	2	 0.0	 0.0	 3	   0.000000	   1.000000	   0.000000;
	2	 0.0	 0.0	 3	   0.000000	   1.000000	   0.000000;
	2	 0.0	 0.0	 3	   0.000000	   1.000000	   0.000000;
	2	 0.0	 0.0	 3	   0.000000	   1.000000	   0.000000;
	2	 0.0	 0.0	 3	   0.000000	   1.000000	   0.000000;
	2	 0.0	 0.0	 3	   0.000000	   1.000000	   0.000000;
	2	 0.0	 0.0	 3	   0.000000	   1.000000	   0.000000;
	2	 0.0	 0.0	 3	   0.000000	   1.000000	   0.000000;
	2	 0.0	 0.0	 3	   0.000000	   1.000000	   0.000000;
	2	 0.0	 0.0	 3	   0.000000	   1.000000	   0.000000;
	2	 0.0	 0.0	 3	   0.000000	   1.000000	   0.000000;
	2	 0.0	 0.0	 3	   0.000000	   1.000000	   0.000000;
	2	 0.0	 0.0	 3	   0.000000	   1.000000	   0.000000;
	2	 0.0	 0.0	 3	   0.000000	   1.000000	   0.000000;
	2	 0.0	 0.0	 3	   0.000000	   1.000000	   0.000000;
	2	 0.0	 0.0	 3	   0.000000	   1.000000	   0.000000;
	2	 0.0	 0.0	 3	   0.000000	   1.000000	   0.000000;
	2	 0.0	 0.0	 3	   0.000000	   1.000000	   0.000000;
	2	 0.0	 0.0	 3	   0.000000	   1.000000	   0.000000;
	2	 0.0	 0.0	 3	   0.000000	   1.000000	   0.000000;
	2	 0.0	 0.0	 3	   0.000000	   1.000000	   0.000000;
	2	 0.0	 0.0	 3	   0.000000	   1.000000	   0.000000;
	2	 0.0	 0.0	 3	   0.000000	   1.000000	   0.000000;
	2	 0.0	 0.0	 3	   0.000000	   1.000000	   0.000000;
	2	 0.0	 0.0	 3	   0.000000	   1.000000	   0.000000;
	2	 0.0	 0.0	 3	   0.000000	   1.000000	   0.000000;
	2	 0.0	 0.0	 3	   0.000000	   1.000000	   0.000000;
	2	 0.0	 0.0	 3	   0.000000	   1.000000	   0.000000;
	2	 0.0	 0.0	 3	   0.000000	   1.000000	   0.000000;
	2	 0.0	 0.0	 3	   0.000000	   1.000000	   0.000000;
	2	 0.0	 0.0	 3	   0.000000	   1.000000	   0.000000;
	2	 0.0	 0.0	 3	   0.000000	   1.000000	   0.000000;
	2	 0.0	 0.0	 3	   0.000000	   1.000000	   0.000000;
	2	 0.0	 0.0	 3	   0.000000	   1.000000	   0.000000;
	2	 0.0	 0.0	 3	   0.000000	   1.000000	   0.000000;
	2	 0.0	 0.0	 3	   0.000000	   1.000000	   0.000000;
	2	 0.0	 0.0	 3	   0.000000	   1.000000	   0.000000;
	2	 0.0	 0.0	 3	   0.000000	   1.000000	   0.000000;
	2	 0.0	 0.0	 3	   0.000000	   1.000000	   0.000000;
	2	 0.0	 0.0	 3	   0.000000	   1.000000	   0.000000;
	2	 0.0	 0.0	 3	   0.000000	   1.000000	   0.000000;
	2	 0.0	 0.0	 3	   0.000000	   1.000000	   0.000000;
	2	 0.0	 0.0	 3	   0.000000	   1.000000	   0.000000;
	2	 0.0	 0.0	 3	   0.000000	   1.000000	   0.000000;
	2	 0.0	 0.0	 3	   0.000000	   1.000000	   0.000000;
	2	 0.0	 0.0	 3	   0.000000	   1.000000	   0.000000;
	2	 0.0	 0.0	 3	   0.000000	   1.000000	   0.000000;
	2	 0.0	 0.0	 3	   0.000000	   1.000000	   0.000000;
	2	 0.0	 0.0	 3	   0.000000	   1.000000	   0.000000;
	2	 0.0	 0.0	 3	   0.000000	   1.000000	   0.000000;
	2	 0.0	 0.0	 3	   0.000000	   1.000000	   0.000000;
	2	 0.0	 0.0	 3	   0.000000	   1.000000	   0.000000;
	2	 0.0	 0.0	 3	   0.000000	   1.000000	   0.000000;
	2	 0.0	 0.0	 3	   0.000000	   1.000000	   0.000000;
	2	 0.0	 0.0	 3	   0.000000	   1.000000	   0.000000;
	2	 0.0	 0.0	 3	   0.000000	   1.000000	   0.000000;
	2	 0.0	 0.0	 3	   0.000000	   1.000000	   0.000000;
	2	 0.0	 0.0	 3	   0.000000	   1.000000	   0.000000;
	2	 0.0	 0.0	 3	   0.000000	   1.000000	   0.000000;
	2	 0.0	 0.0	 3	   0.000000	   1.000000	   0.000000;
	2	 0.0	 0.0	 3	   0.000000	   1.000000	   0.000000;
	2	 0.0	 0.0	 3	   0.000000	   1.000000	   0.000000;
	2	 0.0	 0.0	 3	   0.000000	   1.000000	   0.000000;
	2	 0.0	 0.0	 3	   0.000000	   1.000000	   0.000000;
	2	 0.0	 0.0	 3	   0.000000	   1.000000	   0.000000;
	2	 0.0	 0.0	 3	   0.000000	   1.000000	   0.000000;
	2	 0.0	 0.0	 3	   0.000000	   1.000000	   0.000000;
	2	 0.0	 0.0	 3	   0.000000	   1.000000	   0.000000;
	2	 0.0	 0.0	 3	   0.000000	   1.000000	   0.000000;
	2	 0.0	 0.0	 3	   0.000000	   1.000000	   0.000000;
	2	 0.0	 0.0	 3	   0.000000	   1.000000	   0.000000;
	2	 0.0	 0.0	 3	   0.000000	   1.000000	   0.000000;
	2	 0.0	 0.0	 3	   0.000000	   1.000000	   0.000000;
	2	 0.0	 0.0	 3	   0.000000	   1.000000	   0.000000;
	2	 0.0	 0.0	 3	   0.000000	   1.000000	   0.000000;
	2	 0.0	 0.0	 3	   0.000000	   1.000000	   0.000000;
	2	 0.0	 0.0	 3	   0.000000	   1.000000	   0.000000;
	2	 0.0	 0.0	 3	   0.000000	   1.000000	   0.000000;
	2	 0.0	 0.0	 3	   0.000000	   1.000000	   0.000000;
	2	 0.0	 0.0	 3	   0.000000	   1.000000	   0.000000;
	2	 0.0	 0.0	 3	   0.000000	   1.000000	   0.000000;
	2	 0.0	 0.0	 3	   0.000000	   1.000000	   0.000000;
	2	 0.0	 0.0	 3	   0.000000	   1.000000	   0.000000;
	2	 0.0	 0.0	 3	   0.000000	   1.000000	   0.000000;
	2	 0.0	 0.0	 3	   0.000000	   1.000000	   0.000000;
	2	 0.0	 0.0	 3	   0.000000	   1.000000	   0.000000;
	2	 0.0	 0.0	 3	   0.000000	   1.000000	   0.000000;
	2	 0.0	 0.0	 3	   0.000000	   1.000000	   0.000000;
	2	 0.0	 0.0	 3	   0.000000	   1.000000	   0.000000;
	2	 0.0	 0.0	 3	   0.000000	   1.000000	   0.000000;
	2	 0.0	 0.0	 3	   0.000000	   1.000000	   0.000000;
	2	 0.0	 0.0	 3	   0.000000	   1.000000	   0.000000;
	2	 0.0	 0.0	 3	   0.000000	   1.000000	   0.000000;
	2	 0.0	 0.0	 3	   0.000000	   1.000000	   0.000000;
	2	 0.0	 0.0	 3	   0.000000	   1.000000	   0.000000;
	2	 0.0	 0.0	 3	   0.000000	   1.000000	   0.000000;
	2	 0.0	 0.0	 3	   0.000000	   1.000000	   0.000000;
	2	 0.0	 0.0	 3	   0.000000	   1.000000	   0.000000;
	2	 0.0	 0.0	 3	   0.000000	   1.000000	   0.000000;
	2	 0.0	 0.0	 3	   0.000000	   1.000000	   0.000000;
	2	 0.0	 0.0	 3	   0.000000	   1.000000	   0.000000;
	2	 0.0	 0.0	 3	   0.000000	   1.000000	   0.000000;
	2	 0.0	 0.0	 3	   0.000000	   1.000000	   0.000000;
	2	 0.0	 0.0	 3	   0.000000	   1.000000	   0.000000;
	2	 0.0	 0.0	 3	   0.000000	   1.000000	   0.000000;
	2	 0.0	 0.0	 3	   0.000000	   1.000000	   0.000000;
	2	 0.0	 0.0	 3	   0.000000	   1.000000	   0.000000;
	2	 0.0	 0.0	 3	   0.000000	   1.000000	   0.000000;
	2	 0.0	 0.0	 3	   0.000000	   1.000000	   0.000000;
	2	 0.0	 0.0	 3	   0.000000	   1.000000	   0.000000;
	2	 0.0	 0.0	 3	   0.000000	   1.000000	   0.000000;
	2	 0.0	 0.0	 3	   0.000000	   1.000000	   0.000000;
	2	 0.0	 0.0	 3	   0.000000	   1.000000	   0.000000;
	2	 0.0	 0.0	 3	   0.000000	   1.000000	   0.000000;
	2	 0.0	 0.0	 3	   0.000000	   1.000000	   0.000000;
	2	 0.0	 0.0	 3	   0.000000	   1.000000	   0.000000;
	2	 0.0	 0.0	 3	   0.000000	   1.000000	   0.000000;
	2	 0.0	 0.0	 3	   0.000000	   1.000000	   0.000000;
	2	 0.0	 0.0	 3	   0.000000	   1.000000	   0.000000;
	2	 0.0	 0.0	 3	   0.000000	   1.000000	   0.000000;
	2	 0.0	 0.0	 3	   0.000000	   1.000000	   0.000000;
	2	 0.0	 0.0	 3	   0.000000	   1.000000	   0.000000;
	2	 0.0	 0.0	 3	   0.000000	   1.000000	   0.000000;
	2	 0.0	 0.0	 3	   0.000000	   1.000000	   0.000000;
	2	 0.0	 0.0	 3	   0.000000	   1.000000	   0.000000;
	2	 0.0	 0.0	 3	   0.000000	   1.000000	   0.000000;
	2	 0.0	 0.0	 3	   0.000000	   1.000000	   0.000000;
	2	 0.0	 0.0	 3	   0.000000	   1.000000	   0.000000;
	2	 0.0	 0.0	 3	   0.000000	   1.000000	   0.000000;
	2	 0.0	 0.0	 3	   0.000000	   1.000000	   0.000000;
	2	 0.0	 0.0	 3	   0.000000	   1.000000	   0.000000;
	2	 0.0	 0.0	 3	   0.000000	   1.000000	   0.000000;
	2	 0.0	 0.0	 3	   0.000000	   1.000000	   0.000000;
	2	 0.0	 0.0	 3	   0.000000	   1.000000	   0.000000;
	2	 0.0	 0.0	 3	   0.000000	   1.000000	   0.000000;
	2	 0.0	 0.0	 3	   0.000000	   1.000000	   0.000000;
	2	 0.0	 0.0	 3	   0.000000	   1.000000	   0.000000;
	2	 0.0	 0.0	 3	   0.000000	   1.000000	   0.000000;
	2	 0.0	 0.0	 3	   0.000000	   1.000000	   0.000000;
	2	 0.0	 0.0	 3	   0.000000	   1.000000	   0.000000;
	2	 0.0	 0.0	 3	   0.000000	   1.000000	   0.000000;
...
];

%% branch data
%	fbus	tbus	r	x	b	rateA	rateB	rateC	ratio	angle	status	angmin	angmax
mpc.branch = [
	7351	 5441	 0.00018	 0.000781	 0.0	 39412	 39412	 39412	 0.0	 0.0	 1	 -30.0	 30.0;
	4314	 7571	 0.002961	 0.01669	 0.0	 319.0	 1864	 1864	 0.0	 0.0	 1	 -30.0	 30.0;
	5803	 3916	 0.00056	 0.00432	 0.0	 7252	 7252	 7252	 0.0	 0.0	 1	 -30.0	 30.0;
	6757	 6036	 0.0002	 0.00246	 0.0	 657.0	 12799	 12799	 0.0	 0.0	 1	 -30.0	 30.0;
	6757	 6921	 0.0003	 0.00377	 0.0	 1315.0	 8353	 8353	 0.0	 0.0	 1	 -30.0	 30.0;
	5019	 9112	 0.00014	 0.00057	 0.0	 53817	 53817	 53817	 0.0	 0.0	 1	 -30.0	 30.0;
	2930	 9112	 0.00013	 0.000729	 0.0	 42657	 42657	 42657	 0.0	 0.0	 1	 -30.0	 30.0;
	1436	 9112	 0.00012	 0.000581	 0.0	 53244	 53244	 53244	 0.0	 0.0	 1	 -30.0	 30.0;
	1851	 9112	 0.00011	 0.00064	 0.0	 48642	 48642	 48642	 0.0	 0.0	 1	 -30.0	 30.0;
	8331	 9112	 0.00019	 0.00056	 0.0	 53416	 53416	 53416	 0.0	 0.0	 1	 -30.0	 30.0;
	6220	 8791	 0.00062	 0.004909	 0.0	 529.0	 6384	 6384	 0.0	 0.0	 1	 -30.0	 30.0;
	9203	 7842	 7e-05	 0.00076	 0.0	 887.0	 41388	 41388	 0.0	 0.0	 1	 -30.0	 30.0;
	9203	 8997	 0.00066	 0.00622	 0.0	 1611.0	 5051	 5051	 0.0	 0.0	 1	 -30.0	 30.0;
	9203	 2129	 0.00054	 0.00752	 0.0	 4190	 4190	 4190	 0.0	 0.0	 1	 -30.0	 30.0;
	9203	 29	 0.00105	 0.00877	 0.0	 1315.0	 3577	 3577	 0.0	 0.0	 1	 -30.0	 30.0;
	118	 8903	 8e-05	 0.00091	 0.0	 657.0	 34578	 34578	 0.0	 0.0	 1	 -30.0	 30.0;
	118	 4598	 0.00056	 0.00719	 0.0	 953.0	 4380	 4380	 0.0	 0.0	 1	 -30.0	 30.0;
	2426	 5533	 0.000531	 0.002039	 0.0	 319.0	 14992	 14992	 0.0	 0.0	 1	 -30.0	 30.0;
	2426	 4831	 0.008659	 0.03769	 0.0	 300.0	 817	 817	 0.0	 0.0	 1	 -30.0	 30.0;
	2426	 8961	 0.003849	 0.021099	 0.0	 1473	 1473	 1473	 0.0	 0.0	 1	 -30.0	 30.0;
	2426	 8522	 0.00688	 0.035969	 0.0	 300.0	 863	 863	 0.0	 0.0	 1	 -30.0	 30.0;
	2426	 6888	 0.006729	 0.03713	 0.0	 838	 838	 838	 0.0	 0.0	 1	 -30.0	 30.0;
	2426	 3401	 0.00111	 0.006651	 0.0	 414.0	 4685	 4685	 0.0	 0.0	 1	 -30.0	 30.0;
	2426	 641	 0.0023	 0.008909	 0.0	 3433	 3433	 3433	 0.0	 0.0	 1	 -30.0	 30.0;
	2426	 2600	 0.000841	 0.00313	 0.0	 9747	 9747	 9747	 0.0	 0.0	 1	 -30.0	 30.0;
...